*************************************************
   ChampSim Multicore Out-of-Order Simulator
   Last compiled: Jan 19 2021 09:17:31
*************************************************

trace_0 traces/482.sphinx3-1100B.champsimtrace.xz
Ultra pref. initializing...
Ultra pref. initialized
Initialize SHIP state
warmup_instructions 100000000
simulation_instructions 500000000
champsim_seed 260

num_cpus 1
cpu_freq 4000
dram_io_freq 2400
page_size 4096
block_size 64
max_read_per_cycle 8
max_fill_per_cycle 1
dram_channels 1
dram_ranks 1
dram_banks 8
dram_rows 65536
dram_columns 128
dram_row_size 8
dram_size 4096
dram_pages 1048576

fetch_width 6
decode_width 6
exec_width 4
lq_width 2
sq_width 2
retire_width 4
scheduler_size 128
branch_mispredict_penalty 20
rob_size 256
lq_size 72
sq_size 56
num_instr_destinations_sparc 4
num_instr_destinations 2
num_instr_sources 4

itlb_set 16
itlb_way 8
itlb_rq_size 16
itlb_wq_size 16
itlb_pq_size 0
itlb_mshr_size 8
itlb_latency 1

dtlb_set 16
dtlb_way 4
dtlb_rq_size 16
dtlb_wq_size 16
dtlb_pq_size 0
dtlb_mshr_size 8
dtlb_latency 1

stlb_set 128
stlb_way 12
stlb_rq_size 32
stlb_wq_size 32
stlb_pq_size 0
stlb_mshr_size 16
stlb_latency 8

l1i_size 32
l1i_set 64
l1i_way 8
l1i_rq_size 64
l1i_wq_size 64
l1i_pq_size 8
l1i_mshr_size 8
l1i_latency 1

l1d_size 32
l1d_set 64
l1d_way 8
l1d_rq_size 64
l1d_wq_size 64
l1d_pq_size 8
l1d_mshr_size 16
l1d_latency 4

l2c_size 512
l2c_set 1024
l2c_way 8
l2c_rq_size 32
l2c_wq_size 32
l2c_pq_size 16
l2c_mshr_size 32
l2c_latency 10

llc_size 2048
llc_set 2048
llc_way 16
llc_rq_size 32
llc_wq_size 32
llc_pq_size 32
llc_mshr_size 64
llc_latency 20

dram_channel_width 8
dram_wq_size 64
dram_rq_size 64
tRP 15
tRCD 15
tCAS 12.5
dram_dbus_turn_around_time 30
dram_write_high_wm 56
dram_write_low_wm 48
min_dram_writes_per_switch 16
dram_mtps 2400
dram_dbus_return_time 13


Heartbeat CPU  0 instructions:    1000001 cycles:     367704 heartbeat IPC: 2.71958 cumulative IPC: 2.71958 (Simulation time: 0 hr 0 min 1 sec) 
Heartbeat CPU  0 instructions:    2000003 cycles:     794921 heartbeat IPC: 2.34074 cumulative IPC: 2.51598 (Simulation time: 0 hr 0 min 3 sec) 
Heartbeat CPU  0 instructions:    3000001 cycles:    1252229 heartbeat IPC: 2.18671 cumulative IPC: 2.39573 (Simulation time: 0 hr 0 min 5 sec) 
Heartbeat CPU  0 instructions:    4000000 cycles:    1734484 heartbeat IPC: 2.07359 cumulative IPC: 2.30616 (Simulation time: 0 hr 0 min 6 sec) 
Heartbeat CPU  0 instructions:    5000000 cycles:    2176972 heartbeat IPC: 2.25995 cumulative IPC: 2.29677 (Simulation time: 0 hr 0 min 8 sec) 
Heartbeat CPU  0 instructions:    6000001 cycles:    2544343 heartbeat IPC: 2.72205 cumulative IPC: 2.35817 (Simulation time: 0 hr 0 min 9 sec) 
Heartbeat CPU  0 instructions:    7000000 cycles:    2935294 heartbeat IPC: 2.55786 cumulative IPC: 2.38477 (Simulation time: 0 hr 0 min 11 sec) 
Heartbeat CPU  0 instructions:    8000000 cycles:    3393651 heartbeat IPC: 2.18171 cumulative IPC: 2.35734 (Simulation time: 0 hr 0 min 13 sec) 
Heartbeat CPU  0 instructions:    9000000 cycles:    3851572 heartbeat IPC: 2.18378 cumulative IPC: 2.33671 (Simulation time: 0 hr 0 min 14 sec) 
Heartbeat CPU  0 instructions:   10000000 cycles:    4341558 heartbeat IPC: 2.04087 cumulative IPC: 2.30332 (Simulation time: 0 hr 0 min 16 sec) 
Heartbeat CPU  0 instructions:   11000001 cycles:    4713839 heartbeat IPC: 2.68615 cumulative IPC: 2.33355 (Simulation time: 0 hr 0 min 18 sec) 
Heartbeat CPU  0 instructions:   12000000 cycles:    5081042 heartbeat IPC: 2.72329 cumulative IPC: 2.36172 (Simulation time: 0 hr 0 min 19 sec) 
Heartbeat CPU  0 instructions:   13000001 cycles:    5529976 heartbeat IPC: 2.22750 cumulative IPC: 2.35082 (Simulation time: 0 hr 0 min 21 sec) 
Heartbeat CPU  0 instructions:   14000000 cycles:    5987852 heartbeat IPC: 2.18400 cumulative IPC: 2.33807 (Simulation time: 0 hr 0 min 22 sec) 
Heartbeat CPU  0 instructions:   15000000 cycles:    6470049 heartbeat IPC: 2.07384 cumulative IPC: 2.31838 (Simulation time: 0 hr 0 min 24 sec) 
Heartbeat CPU  0 instructions:   16000000 cycles:    6880067 heartbeat IPC: 2.43892 cumulative IPC: 2.32556 (Simulation time: 0 hr 0 min 26 sec) 
Heartbeat CPU  0 instructions:   17000003 cycles:    7247326 heartbeat IPC: 2.72288 cumulative IPC: 2.34569 (Simulation time: 0 hr 0 min 27 sec) 
Heartbeat CPU  0 instructions:   18000003 cycles:    7659128 heartbeat IPC: 2.42835 cumulative IPC: 2.35014 (Simulation time: 0 hr 0 min 29 sec) 
Heartbeat CPU  0 instructions:   19000003 cycles:    8117003 heartbeat IPC: 2.18400 cumulative IPC: 2.34077 (Simulation time: 0 hr 0 min 31 sec) 
Heartbeat CPU  0 instructions:   20000000 cycles:    8585247 heartbeat IPC: 2.13563 cumulative IPC: 2.32958 (Simulation time: 0 hr 0 min 32 sec) 
Heartbeat CPU  0 instructions:   21000002 cycles:    9044163 heartbeat IPC: 2.17905 cumulative IPC: 2.32194 (Simulation time: 0 hr 0 min 34 sec) 
Heartbeat CPU  0 instructions:   22000003 cycles:    9411444 heartbeat IPC: 2.72271 cumulative IPC: 2.33758 (Simulation time: 0 hr 0 min 35 sec) 
Heartbeat CPU  0 instructions:   23000001 cycles:    9792010 heartbeat IPC: 2.62766 cumulative IPC: 2.34885 (Simulation time: 0 hr 0 min 37 sec) 
Heartbeat CPU  0 instructions:   24000000 cycles:   10247159 heartbeat IPC: 2.19708 cumulative IPC: 2.34211 (Simulation time: 0 hr 0 min 39 sec) 
Heartbeat CPU  0 instructions:   25000002 cycles:   10702469 heartbeat IPC: 2.19631 cumulative IPC: 2.33591 (Simulation time: 0 hr 0 min 40 sec) 
Heartbeat CPU  0 instructions:   26000002 cycles:   11181073 heartbeat IPC: 2.08941 cumulative IPC: 2.32536 (Simulation time: 0 hr 0 min 42 sec) 
Heartbeat CPU  0 instructions:   27000001 cycles:   11574232 heartbeat IPC: 2.54350 cumulative IPC: 2.33277 (Simulation time: 0 hr 0 min 43 sec) 
Heartbeat CPU  0 instructions:   28000000 cycles:   11941234 heartbeat IPC: 2.72478 cumulative IPC: 2.34482 (Simulation time: 0 hr 0 min 45 sec) 
Heartbeat CPU  0 instructions:   29000001 cycles:   12377353 heartbeat IPC: 2.29295 cumulative IPC: 2.34299 (Simulation time: 0 hr 0 min 47 sec) 
Heartbeat CPU  0 instructions:   30000003 cycles:   12830777 heartbeat IPC: 2.20545 cumulative IPC: 2.33813 (Simulation time: 0 hr 0 min 48 sec) 
Heartbeat CPU  0 instructions:   31000002 cycles:   13284656 heartbeat IPC: 2.20323 cumulative IPC: 2.33352 (Simulation time: 0 hr 0 min 50 sec) 
Heartbeat CPU  0 instructions:   32000000 cycles:   13767613 heartbeat IPC: 2.07057 cumulative IPC: 2.32430 (Simulation time: 0 hr 0 min 51 sec) 
Heartbeat CPU  0 instructions:   33000003 cycles:   14168721 heartbeat IPC: 2.49310 cumulative IPC: 2.32907 (Simulation time: 0 hr 0 min 53 sec) 
Heartbeat CPU  0 instructions:   34000003 cycles:   14535746 heartbeat IPC: 2.72461 cumulative IPC: 2.33906 (Simulation time: 0 hr 0 min 55 sec) 
Heartbeat CPU  0 instructions:   35000000 cycles:   14962611 heartbeat IPC: 2.34265 cumulative IPC: 2.33916 (Simulation time: 0 hr 0 min 56 sec) 
Heartbeat CPU  0 instructions:   36000000 cycles:   15416155 heartbeat IPC: 2.20486 cumulative IPC: 2.33521 (Simulation time: 0 hr 0 min 58 sec) 
Heartbeat CPU  0 instructions:   37000000 cycles:   15869940 heartbeat IPC: 2.20369 cumulative IPC: 2.33145 (Simulation time: 0 hr 1 min 0 sec) 
Heartbeat CPU  0 instructions:   38000003 cycles:   16357420 heartbeat IPC: 2.05137 cumulative IPC: 2.32310 (Simulation time: 0 hr 1 min 1 sec) 
Heartbeat CPU  0 instructions:   39000001 cycles:   16764823 heartbeat IPC: 2.45457 cumulative IPC: 2.32630 (Simulation time: 0 hr 1 min 3 sec) 
Heartbeat CPU  0 instructions:   40000000 cycles:   17131933 heartbeat IPC: 2.72398 cumulative IPC: 2.33482 (Simulation time: 0 hr 1 min 5 sec) 
Heartbeat CPU  0 instructions:   41000003 cycles:   17551941 heartbeat IPC: 2.38091 cumulative IPC: 2.33592 (Simulation time: 0 hr 1 min 6 sec) 
Heartbeat CPU  0 instructions:   42000000 cycles:   18009710 heartbeat IPC: 2.18450 cumulative IPC: 2.33208 (Simulation time: 0 hr 1 min 8 sec) 
Heartbeat CPU  0 instructions:   43000001 cycles:   18465859 heartbeat IPC: 2.19227 cumulative IPC: 2.32862 (Simulation time: 0 hr 1 min 9 sec) 
Heartbeat CPU  0 instructions:   44000000 cycles:   18955797 heartbeat IPC: 2.04107 cumulative IPC: 2.32119 (Simulation time: 0 hr 1 min 11 sec) 
Heartbeat CPU  0 instructions:   45000002 cycles:   19367936 heartbeat IPC: 2.42637 cumulative IPC: 2.32343 (Simulation time: 0 hr 1 min 12 sec) 
Heartbeat CPU  0 instructions:   46000000 cycles:   19735187 heartbeat IPC: 2.72293 cumulative IPC: 2.33086 (Simulation time: 0 hr 1 min 14 sec) 
Heartbeat CPU  0 instructions:   47000002 cycles:   20148184 heartbeat IPC: 2.42133 cumulative IPC: 2.33272 (Simulation time: 0 hr 1 min 16 sec) 
Heartbeat CPU  0 instructions:   48000000 cycles:   20607679 heartbeat IPC: 2.17630 cumulative IPC: 2.32923 (Simulation time: 0 hr 1 min 17 sec) 
Heartbeat CPU  0 instructions:   49000003 cycles:   21064080 heartbeat IPC: 2.19106 cumulative IPC: 2.32624 (Simulation time: 0 hr 1 min 19 sec) 
Heartbeat CPU  0 instructions:   50000003 cycles:   21574462 heartbeat IPC: 1.95932 cumulative IPC: 2.31755 (Simulation time: 0 hr 1 min 20 sec) 
Heartbeat CPU  0 instructions:   51000002 cycles:   22036578 heartbeat IPC: 2.16396 cumulative IPC: 2.31433 (Simulation time: 0 hr 1 min 22 sec) 
Heartbeat CPU  0 instructions:   52000000 cycles:   22409716 heartbeat IPC: 2.67997 cumulative IPC: 2.32042 (Simulation time: 0 hr 1 min 24 sec) 
Heartbeat CPU  0 instructions:   53000001 cycles:   22777073 heartbeat IPC: 2.72215 cumulative IPC: 2.32690 (Simulation time: 0 hr 1 min 26 sec) 
Heartbeat CPU  0 instructions:   54000001 cycles:   23226416 heartbeat IPC: 2.22547 cumulative IPC: 2.32494 (Simulation time: 0 hr 1 min 27 sec) 
Heartbeat CPU  0 instructions:   55000001 cycles:   23679797 heartbeat IPC: 2.20565 cumulative IPC: 2.32266 (Simulation time: 0 hr 1 min 29 sec) 
Heartbeat CPU  0 instructions:   56000000 cycles:   24136717 heartbeat IPC: 2.18856 cumulative IPC: 2.32012 (Simulation time: 0 hr 1 min 30 sec) 
Heartbeat CPU  0 instructions:   57000003 cycles:   24621824 heartbeat IPC: 2.06141 cumulative IPC: 2.31502 (Simulation time: 0 hr 1 min 32 sec) 
Heartbeat CPU  0 instructions:   58000001 cycles:   25015360 heartbeat IPC: 2.54106 cumulative IPC: 2.31858 (Simulation time: 0 hr 1 min 34 sec) 
Heartbeat CPU  0 instructions:   59000001 cycles:   25382498 heartbeat IPC: 2.72377 cumulative IPC: 2.32444 (Simulation time: 0 hr 1 min 36 sec) 
Heartbeat CPU  0 instructions:   60000000 cycles:   25821718 heartbeat IPC: 2.27676 cumulative IPC: 2.32363 (Simulation time: 0 hr 1 min 37 sec) 
Heartbeat CPU  0 instructions:   61000000 cycles:   26277547 heartbeat IPC: 2.19381 cumulative IPC: 2.32137 (Simulation time: 0 hr 1 min 39 sec) 
Heartbeat CPU  0 instructions:   62000000 cycles:   26734882 heartbeat IPC: 2.18658 cumulative IPC: 2.31907 (Simulation time: 0 hr 1 min 40 sec) 
Heartbeat CPU  0 instructions:   63000000 cycles:   27222052 heartbeat IPC: 2.05267 cumulative IPC: 2.31430 (Simulation time: 0 hr 1 min 42 sec) 
Heartbeat CPU  0 instructions:   64000000 cycles:   27624121 heartbeat IPC: 2.48714 cumulative IPC: 2.31682 (Simulation time: 0 hr 1 min 44 sec) 
Heartbeat CPU  0 instructions:   65000000 cycles:   27991391 heartbeat IPC: 2.72279 cumulative IPC: 2.32214 (Simulation time: 0 hr 1 min 45 sec) 
Heartbeat CPU  0 instructions:   66000001 cycles:   28416391 heartbeat IPC: 2.35294 cumulative IPC: 2.32260 (Simulation time: 0 hr 1 min 47 sec) 
Heartbeat CPU  0 instructions:   67000003 cycles:   28875948 heartbeat IPC: 2.17601 cumulative IPC: 2.32027 (Simulation time: 0 hr 1 min 49 sec) 
Heartbeat CPU  0 instructions:   68000000 cycles:   29329934 heartbeat IPC: 2.20270 cumulative IPC: 2.31845 (Simulation time: 0 hr 1 min 50 sec) 
Heartbeat CPU  0 instructions:   69000001 cycles:   29816742 heartbeat IPC: 2.05420 cumulative IPC: 2.31414 (Simulation time: 0 hr 1 min 52 sec) 
Heartbeat CPU  0 instructions:   70000001 cycles:   30225869 heartbeat IPC: 2.44423 cumulative IPC: 2.31590 (Simulation time: 0 hr 1 min 54 sec) 
Heartbeat CPU  0 instructions:   71000001 cycles:   30593209 heartbeat IPC: 2.72227 cumulative IPC: 2.32078 (Simulation time: 0 hr 1 min 55 sec) 
Heartbeat CPU  0 instructions:   72000000 cycles:   31008705 heartbeat IPC: 2.40676 cumulative IPC: 2.32193 (Simulation time: 0 hr 1 min 57 sec) 
Heartbeat CPU  0 instructions:   73000000 cycles:   31465360 heartbeat IPC: 2.18984 cumulative IPC: 2.32001 (Simulation time: 0 hr 1 min 59 sec) 
Heartbeat CPU  0 instructions:   74000002 cycles:   31920607 heartbeat IPC: 2.19661 cumulative IPC: 2.31825 (Simulation time: 0 hr 2 min 0 sec) 
Heartbeat CPU  0 instructions:   75000002 cycles:   32408971 heartbeat IPC: 2.04765 cumulative IPC: 2.31417 (Simulation time: 0 hr 2 min 2 sec) 
Heartbeat CPU  0 instructions:   76000000 cycles:   32827658 heartbeat IPC: 2.38841 cumulative IPC: 2.31512 (Simulation time: 0 hr 2 min 4 sec) 
Heartbeat CPU  0 instructions:   77000003 cycles:   33194937 heartbeat IPC: 2.72273 cumulative IPC: 2.31963 (Simulation time: 0 hr 2 min 5 sec) 
Heartbeat CPU  0 instructions:   78000002 cycles:   33603001 heartbeat IPC: 2.45059 cumulative IPC: 2.32122 (Simulation time: 0 hr 2 min 7 sec) 
Heartbeat CPU  0 instructions:   79000000 cycles:   34058128 heartbeat IPC: 2.19718 cumulative IPC: 2.31956 (Simulation time: 0 hr 2 min 9 sec) 
Heartbeat CPU  0 instructions:   80000000 cycles:   34514975 heartbeat IPC: 2.18892 cumulative IPC: 2.31783 (Simulation time: 0 hr 2 min 10 sec) 
Heartbeat CPU  0 instructions:   81000001 cycles:   34973894 heartbeat IPC: 2.17904 cumulative IPC: 2.31601 (Simulation time: 0 hr 2 min 12 sec) 
Heartbeat CPU  0 instructions:   82000001 cycles:   35460509 heartbeat IPC: 2.05501 cumulative IPC: 2.31243 (Simulation time: 0 hr 2 min 13 sec) 
Heartbeat CPU  0 instructions:   83000001 cycles:   35832025 heartbeat IPC: 2.69167 cumulative IPC: 2.31636 (Simulation time: 0 hr 2 min 15 sec) 
Heartbeat CPU  0 instructions:   84000000 cycles:   36200204 heartbeat IPC: 2.71607 cumulative IPC: 2.32043 (Simulation time: 0 hr 2 min 17 sec) 
Heartbeat CPU  0 instructions:   85000003 cycles:   36655514 heartbeat IPC: 2.19631 cumulative IPC: 2.31889 (Simulation time: 0 hr 2 min 19 sec) 
Heartbeat CPU  0 instructions:   86000001 cycles:   37110992 heartbeat IPC: 2.19549 cumulative IPC: 2.31737 (Simulation time: 0 hr 2 min 20 sec) 
Heartbeat CPU  0 instructions:   87000003 cycles:   37568016 heartbeat IPC: 2.18807 cumulative IPC: 2.31580 (Simulation time: 0 hr 2 min 22 sec) 
Heartbeat CPU  0 instructions:   88000000 cycles:   38057456 heartbeat IPC: 2.04315 cumulative IPC: 2.31229 (Simulation time: 0 hr 2 min 23 sec) 
Heartbeat CPU  0 instructions:   89000002 cycles:   38460697 heartbeat IPC: 2.47991 cumulative IPC: 2.31405 (Simulation time: 0 hr 2 min 25 sec) 
Heartbeat CPU  0 instructions:   90000002 cycles:   38828090 heartbeat IPC: 2.72188 cumulative IPC: 2.31791 (Simulation time: 0 hr 2 min 27 sec) 
Heartbeat CPU  0 instructions:   91000002 cycles:   39248907 heartbeat IPC: 2.37633 cumulative IPC: 2.31854 (Simulation time: 0 hr 2 min 29 sec) 
Heartbeat CPU  0 instructions:   92000000 cycles:   39702358 heartbeat IPC: 2.20531 cumulative IPC: 2.31724 (Simulation time: 0 hr 2 min 30 sec) 
Heartbeat CPU  0 instructions:   93000002 cycles:   40158788 heartbeat IPC: 2.19092 cumulative IPC: 2.31581 (Simulation time: 0 hr 2 min 32 sec) 
Heartbeat CPU  0 instructions:   94000001 cycles:   40647164 heartbeat IPC: 2.04760 cumulative IPC: 2.31258 (Simulation time: 0 hr 2 min 33 sec) 
Heartbeat CPU  0 instructions:   95000000 cycles:   41019625 heartbeat IPC: 2.68484 cumulative IPC: 2.31596 (Simulation time: 0 hr 2 min 35 sec) 
Heartbeat CPU  0 instructions:   96000000 cycles:   41386882 heartbeat IPC: 2.72289 cumulative IPC: 2.31958 (Simulation time: 0 hr 2 min 37 sec) 
Heartbeat CPU  0 instructions:   97000001 cycles:   41832713 heartbeat IPC: 2.24300 cumulative IPC: 2.31876 (Simulation time: 0 hr 2 min 38 sec) 
Heartbeat CPU  0 instructions:   98000002 cycles:   42289098 heartbeat IPC: 2.19113 cumulative IPC: 2.31738 (Simulation time: 0 hr 2 min 40 sec) 
Heartbeat CPU  0 instructions:   99000003 cycles:   42774998 heartbeat IPC: 2.05804 cumulative IPC: 2.31444 (Simulation time: 0 hr 2 min 42 sec) 
Heartbeat CPU  0 instructions:  100000000 cycles:   43318922 heartbeat IPC: 1.83849 cumulative IPC: 2.30846 (Simulation time: 0 hr 2 min 43 sec) 

Warmup complete CPU  0 instructions:  100000001 cycles:   43318923 (Simulation time: 0 hr 2 min 43 sec) 

Heartbeat CPU  0 instructions:  101000001 cycles:   44113688 heartbeat IPC: 1.25823 cumulative IPC: 1.25823 (Simulation time: 0 hr 2 min 45 sec) 
Heartbeat CPU  0 instructions:  102000003 cycles:   44700888 heartbeat IPC: 1.70300 cumulative IPC: 1.44722 (Simulation time: 0 hr 2 min 48 sec) 
Heartbeat CPU  0 instructions:  103000000 cycles:   45406283 heartbeat IPC: 1.41764 cumulative IPC: 1.43722 (Simulation time: 0 hr 2 min 50 sec) 
Heartbeat CPU  0 instructions:  104000000 cycles:   46374827 heartbeat IPC: 1.03248 cumulative IPC: 1.30894 (Simulation time: 0 hr 2 min 52 sec) 
Heartbeat CPU  0 instructions:  105000000 cycles:   47317901 heartbeat IPC: 1.06036 cumulative IPC: 1.25032 (Simulation time: 0 hr 2 min 54 sec) 
Heartbeat CPU  0 instructions:  106000003 cycles:   47982049 heartbeat IPC: 1.50569 cumulative IPC: 1.28669 (Simulation time: 0 hr 2 min 56 sec) 
Heartbeat CPU  0 instructions:  107000003 cycles:   48562576 heartbeat IPC: 1.72257 cumulative IPC: 1.33495 (Simulation time: 0 hr 2 min 58 sec) 
Heartbeat CPU  0 instructions:  108000000 cycles:   49451284 heartbeat IPC: 1.12523 cumulative IPC: 1.30455 (Simulation time: 0 hr 3 min 0 sec) 
Heartbeat CPU  0 instructions:  109000000 cycles:   50440506 heartbeat IPC: 1.01090 cumulative IPC: 1.26376 (Simulation time: 0 hr 3 min 2 sec) 
Heartbeat CPU  0 instructions:  110000001 cycles:   51220868 heartbeat IPC: 1.28146 cumulative IPC: 1.26551 (Simulation time: 0 hr 3 min 4 sec) 
Heartbeat CPU  0 instructions:  111000000 cycles:   51798785 heartbeat IPC: 1.73035 cumulative IPC: 1.29719 (Simulation time: 0 hr 3 min 6 sec) 
Heartbeat CPU  0 instructions:  112000000 cycles:   52507169 heartbeat IPC: 1.41166 cumulative IPC: 1.30602 (Simulation time: 0 hr 3 min 8 sec) 
Heartbeat CPU  0 instructions:  113000003 cycles:   53458237 heartbeat IPC: 1.05145 cumulative IPC: 1.28214 (Simulation time: 0 hr 3 min 11 sec) 
Heartbeat CPU  0 instructions:  114000001 cycles:   54380649 heartbeat IPC: 1.08411 cumulative IPC: 1.26563 (Simulation time: 0 hr 3 min 13 sec) 
Heartbeat CPU  0 instructions:  115000000 cycles:   55198517 heartbeat IPC: 1.22269 cumulative IPC: 1.26267 (Simulation time: 0 hr 3 min 15 sec) 
Heartbeat CPU  0 instructions:  116000000 cycles:   55772952 heartbeat IPC: 1.74084 cumulative IPC: 1.28472 (Simulation time: 0 hr 3 min 17 sec) 
Heartbeat CPU  0 instructions:  117000000 cycles:   56648245 heartbeat IPC: 1.14247 cumulative IPC: 1.27538 (Simulation time: 0 hr 3 min 19 sec) 
Heartbeat CPU  0 instructions:  118000003 cycles:   57558905 heartbeat IPC: 1.09811 cumulative IPC: 1.26405 (Simulation time: 0 hr 3 min 21 sec) 
Heartbeat CPU  0 instructions:  119000002 cycles:   58504932 heartbeat IPC: 1.05705 cumulative IPC: 1.25115 (Simulation time: 0 hr 3 min 23 sec) 
Heartbeat CPU  0 instructions:  120000000 cycles:   59584233 heartbeat IPC: 0.92652 cumulative IPC: 1.22961 (Simulation time: 0 hr 3 min 25 sec) 
Heartbeat CPU  0 instructions:  121000000 cycles:   60403990 heartbeat IPC: 1.21987 cumulative IPC: 1.22914 (Simulation time: 0 hr 3 min 27 sec) 
Heartbeat CPU  0 instructions:  122000001 cycles:   60985921 heartbeat IPC: 1.71842 cumulative IPC: 1.24526 (Simulation time: 0 hr 3 min 29 sec) 
Heartbeat CPU  0 instructions:  123000001 cycles:   61692611 heartbeat IPC: 1.41505 cumulative IPC: 1.25179 (Simulation time: 0 hr 3 min 32 sec) 
Heartbeat CPU  0 instructions:  124000000 cycles:   62641266 heartbeat IPC: 1.05412 cumulative IPC: 1.24209 (Simulation time: 0 hr 3 min 34 sec) 
Heartbeat CPU  0 instructions:  125000001 cycles:   63568139 heartbeat IPC: 1.07890 cumulative IPC: 1.23462 (Simulation time: 0 hr 3 min 36 sec) 
Heartbeat CPU  0 instructions:  126000003 cycles:   64542256 heartbeat IPC: 1.02657 cumulative IPC: 1.22507 (Simulation time: 0 hr 3 min 38 sec) 
Heartbeat CPU  0 instructions:  127000000 cycles:   65481545 heartbeat IPC: 1.06463 cumulative IPC: 1.21827 (Simulation time: 0 hr 3 min 40 sec) 
Heartbeat CPU  0 instructions:  128000000 cycles:   66085099 heartbeat IPC: 1.65685 cumulative IPC: 1.22989 (Simulation time: 0 hr 3 min 42 sec) 
Heartbeat CPU  0 instructions:  129000000 cycles:   66699552 heartbeat IPC: 1.62746 cumulative IPC: 1.24034 (Simulation time: 0 hr 3 min 44 sec) 
Heartbeat CPU  0 instructions:  130000000 cycles:   67663016 heartbeat IPC: 1.03792 cumulative IPC: 1.23233 (Simulation time: 0 hr 3 min 46 sec) 
Heartbeat CPU  0 instructions:  131000002 cycles:   68602758 heartbeat IPC: 1.06412 cumulative IPC: 1.22608 (Simulation time: 0 hr 3 min 48 sec) 
Heartbeat CPU  0 instructions:  132000000 cycles:   69616940 heartbeat IPC: 0.98601 cumulative IPC: 1.21682 (Simulation time: 0 hr 3 min 50 sec) 
Heartbeat CPU  0 instructions:  133000000 cycles:   70370684 heartbeat IPC: 1.32671 cumulative IPC: 1.21988 (Simulation time: 0 hr 3 min 52 sec) 
Heartbeat CPU  0 instructions:  134000002 cycles:   70951400 heartbeat IPC: 1.72202 cumulative IPC: 1.23044 (Simulation time: 0 hr 3 min 55 sec) 
Heartbeat CPU  0 instructions:  135000001 cycles:   71734215 heartbeat IPC: 1.27744 cumulative IPC: 1.23173 (Simulation time: 0 hr 3 min 57 sec) 
Heartbeat CPU  0 instructions:  136000000 cycles:   72690457 heartbeat IPC: 1.04576 cumulative IPC: 1.22568 (Simulation time: 0 hr 3 min 59 sec) 
Heartbeat CPU  0 instructions:  137000002 cycles:   73680715 heartbeat IPC: 1.00984 cumulative IPC: 1.21864 (Simulation time: 0 hr 4 min 1 sec) 
Heartbeat CPU  0 instructions:  138000002 cycles:   74399539 heartbeat IPC: 1.39116 cumulative IPC: 1.22263 (Simulation time: 0 hr 4 min 3 sec) 
Heartbeat CPU  0 instructions:  139000002 cycles:   74982777 heartbeat IPC: 1.71457 cumulative IPC: 1.23169 (Simulation time: 0 hr 4 min 5 sec) 
Heartbeat CPU  0 instructions:  140000000 cycles:   75805048 heartbeat IPC: 1.21614 cumulative IPC: 1.23129 (Simulation time: 0 hr 4 min 7 sec) 
Heartbeat CPU  0 instructions:  141000000 cycles:   76757789 heartbeat IPC: 1.04960 cumulative IPC: 1.22612 (Simulation time: 0 hr 4 min 9 sec) 
Heartbeat CPU  0 instructions:  142000001 cycles:   77718224 heartbeat IPC: 1.04120 cumulative IPC: 1.22096 (Simulation time: 0 hr 4 min 11 sec) 
Heartbeat CPU  0 instructions:  143000003 cycles:   78367366 heartbeat IPC: 1.54050 cumulative IPC: 1.22687 (Simulation time: 0 hr 4 min 13 sec) 
Heartbeat CPU  0 instructions:  144000000 cycles:   78944093 heartbeat IPC: 1.73392 cumulative IPC: 1.23508 (Simulation time: 0 hr 4 min 15 sec) 
Heartbeat CPU  0 instructions:  145000002 cycles:   79848660 heartbeat IPC: 1.10550 cumulative IPC: 1.23187 (Simulation time: 0 hr 4 min 18 sec) 
Heartbeat CPU  0 instructions:  146000002 cycles:   80832271 heartbeat IPC: 1.01666 cumulative IPC: 1.22623 (Simulation time: 0 hr 4 min 20 sec) 
Heartbeat CPU  0 instructions:  147000002 cycles:   81693161 heartbeat IPC: 1.16159 cumulative IPC: 1.22478 (Simulation time: 0 hr 4 min 22 sec) 
Heartbeat CPU  0 instructions:  148000000 cycles:   82274258 heartbeat IPC: 1.72088 cumulative IPC: 1.23218 (Simulation time: 0 hr 4 min 24 sec) 
Heartbeat CPU  0 instructions:  149000003 cycles:   82930949 heartbeat IPC: 1.52279 cumulative IPC: 1.23700 (Simulation time: 0 hr 4 min 26 sec) 
Heartbeat CPU  0 instructions:  150000003 cycles:   83878651 heartbeat IPC: 1.05518 cumulative IPC: 1.23275 (Simulation time: 0 hr 4 min 28 sec) 
Heartbeat CPU  0 instructions:  151000002 cycles:   84935909 heartbeat IPC: 0.94584 cumulative IPC: 1.22546 (Simulation time: 0 hr 4 min 30 sec) 
Heartbeat CPU  0 instructions:  152000000 cycles:   85826957 heartbeat IPC: 1.12227 cumulative IPC: 1.22330 (Simulation time: 0 hr 4 min 32 sec) 
Heartbeat CPU  0 instructions:  153000001 cycles:   86543232 heartbeat IPC: 1.39611 cumulative IPC: 1.22616 (Simulation time: 0 hr 4 min 34 sec) 
Heartbeat CPU  0 instructions:  154000003 cycles:   87122194 heartbeat IPC: 1.72723 cumulative IPC: 1.23278 (Simulation time: 0 hr 4 min 37 sec) 
Heartbeat CPU  0 instructions:  155000003 cycles:   87896607 heartbeat IPC: 1.29130 cumulative IPC: 1.23380 (Simulation time: 0 hr 4 min 39 sec) 
Heartbeat CPU  0 instructions:  156000000 cycles:   88854262 heartbeat IPC: 1.04421 cumulative IPC: 1.22981 (Simulation time: 0 hr 4 min 41 sec) 
Heartbeat CPU  0 instructions:  157000003 cycles:   89796866 heartbeat IPC: 1.06089 cumulative IPC: 1.22639 (Simulation time: 0 hr 4 min 43 sec) 
Heartbeat CPU  0 instructions:  158000002 cycles:   90418417 heartbeat IPC: 1.60888 cumulative IPC: 1.23144 (Simulation time: 0 hr 4 min 45 sec) 
Heartbeat CPU  0 instructions:  159000000 cycles:   90992375 heartbeat IPC: 1.74228 cumulative IPC: 1.23759 (Simulation time: 0 hr 4 min 47 sec) 
Heartbeat CPU  0 instructions:  160000000 cycles:   91944658 heartbeat IPC: 1.05011 cumulative IPC: 1.23391 (Simulation time: 0 hr 4 min 49 sec) 
Heartbeat CPU  0 instructions:  161000000 cycles:   92940088 heartbeat IPC: 1.00459 cumulative IPC: 1.22931 (Simulation time: 0 hr 4 min 51 sec) 
Heartbeat CPU  0 instructions:  162000003 cycles:   93681538 heartbeat IPC: 1.34871 cumulative IPC: 1.23107 (Simulation time: 0 hr 4 min 53 sec) 
Heartbeat CPU  0 instructions:  163000002 cycles:   94260411 heartbeat IPC: 1.72749 cumulative IPC: 1.23671 (Simulation time: 0 hr 4 min 55 sec) 
Heartbeat CPU  0 instructions:  164000000 cycles:   95013302 heartbeat IPC: 1.32821 cumulative IPC: 1.23805 (Simulation time: 0 hr 4 min 57 sec) 
Heartbeat CPU  0 instructions:  165000000 cycles:   95963163 heartbeat IPC: 1.05279 cumulative IPC: 1.23470 (Simulation time: 0 hr 5 min 0 sec) 
Heartbeat CPU  0 instructions:  166000002 cycles:   96897804 heartbeat IPC: 1.06993 cumulative IPC: 1.23183 (Simulation time: 0 hr 5 min 2 sec) 
Heartbeat CPU  0 instructions:  167000001 cycles:   97520264 heartbeat IPC: 1.60653 cumulative IPC: 1.23613 (Simulation time: 0 hr 5 min 4 sec) 
Heartbeat CPU  0 instructions:  168000000 cycles:   98094222 heartbeat IPC: 1.74229 cumulative IPC: 1.24144 (Simulation time: 0 hr 5 min 6 sec) 
Heartbeat CPU  0 instructions:  169000000 cycles:   99038681 heartbeat IPC: 1.05881 cumulative IPC: 1.23834 (Simulation time: 0 hr 5 min 8 sec) 
Heartbeat CPU  0 instructions:  170000002 cycles:  100033345 heartbeat IPC: 1.00537 cumulative IPC: 1.23425 (Simulation time: 0 hr 5 min 10 sec) 
Heartbeat CPU  0 instructions:  171000003 cycles:  100777260 heartbeat IPC: 1.34424 cumulative IPC: 1.23568 (Simulation time: 0 hr 5 min 12 sec) 
Heartbeat CPU  0 instructions:  172000000 cycles:  101358293 heartbeat IPC: 1.72107 cumulative IPC: 1.24054 (Simulation time: 0 hr 5 min 14 sec) 
Heartbeat CPU  0 instructions:  173000000 cycles:  102110589 heartbeat IPC: 1.32926 cumulative IPC: 1.24167 (Simulation time: 0 hr 5 min 16 sec) 
Heartbeat CPU  0 instructions:  174000000 cycles:  103065251 heartbeat IPC: 1.04749 cumulative IPC: 1.23857 (Simulation time: 0 hr 5 min 18 sec) 
Heartbeat CPU  0 instructions:  175000002 cycles:  103999902 heartbeat IPC: 1.06992 cumulative IPC: 1.23597 (Simulation time: 0 hr 5 min 20 sec) 
Heartbeat CPU  0 instructions:  176000000 cycles:  104625596 heartbeat IPC: 1.59822 cumulative IPC: 1.23967 (Simulation time: 0 hr 5 min 22 sec) 
Heartbeat CPU  0 instructions:  177000003 cycles:  105200565 heartbeat IPC: 1.73923 cumulative IPC: 1.24431 (Simulation time: 0 hr 5 min 25 sec) 
Heartbeat CPU  0 instructions:  178000003 cycles:  106128199 heartbeat IPC: 1.07801 cumulative IPC: 1.24185 (Simulation time: 0 hr 5 min 27 sec) 
Heartbeat CPU  0 instructions:  179000003 cycles:  107127227 heartbeat IPC: 1.00097 cumulative IPC: 1.23808 (Simulation time: 0 hr 5 min 29 sec) 
Heartbeat CPU  0 instructions:  180000000 cycles:  107872314 heartbeat IPC: 1.34212 cumulative IPC: 1.23928 (Simulation time: 0 hr 5 min 31 sec) 
Heartbeat CPU  0 instructions:  181000002 cycles:  108453128 heartbeat IPC: 1.72172 cumulative IPC: 1.24359 (Simulation time: 0 hr 5 min 33 sec) 
Heartbeat CPU  0 instructions:  182000002 cycles:  109197170 heartbeat IPC: 1.34401 cumulative IPC: 1.24472 (Simulation time: 0 hr 5 min 35 sec) 
Heartbeat CPU  0 instructions:  183000002 cycles:  110132865 heartbeat IPC: 1.06872 cumulative IPC: 1.24226 (Simulation time: 0 hr 5 min 37 sec) 
Heartbeat CPU  0 instructions:  184000000 cycles:  111072069 heartbeat IPC: 1.06473 cumulative IPC: 1.23979 (Simulation time: 0 hr 5 min 39 sec) 
Heartbeat CPU  0 instructions:  185000003 cycles:  111702930 heartbeat IPC: 1.58514 cumulative IPC: 1.24298 (Simulation time: 0 hr 5 min 41 sec) 
Heartbeat CPU  0 instructions:  186000001 cycles:  112277650 heartbeat IPC: 1.73997 cumulative IPC: 1.24712 (Simulation time: 0 hr 5 min 43 sec) 
Heartbeat CPU  0 instructions:  187000002 cycles:  113204001 heartbeat IPC: 1.07951 cumulative IPC: 1.24490 (Simulation time: 0 hr 5 min 45 sec) 
Heartbeat CPU  0 instructions:  188000000 cycles:  114204422 heartbeat IPC: 0.99958 cumulative IPC: 1.24144 (Simulation time: 0 hr 5 min 48 sec) 
Heartbeat CPU  0 instructions:  189000001 cycles:  114965414 heartbeat IPC: 1.31408 cumulative IPC: 1.24221 (Simulation time: 0 hr 5 min 50 sec) 
Heartbeat CPU  0 instructions:  190000001 cycles:  115545866 heartbeat IPC: 1.72280 cumulative IPC: 1.24607 (Simulation time: 0 hr 5 min 52 sec) 
Heartbeat CPU  0 instructions:  191000003 cycles:  116286527 heartbeat IPC: 1.35015 cumulative IPC: 1.24713 (Simulation time: 0 hr 5 min 54 sec) 
Heartbeat CPU  0 instructions:  192000000 cycles:  117226632 heartbeat IPC: 1.06371 cumulative IPC: 1.24480 (Simulation time: 0 hr 5 min 56 sec) 
Heartbeat CPU  0 instructions:  193000002 cycles:  118179159 heartbeat IPC: 1.04984 cumulative IPC: 1.24232 (Simulation time: 0 hr 5 min 58 sec) 
Heartbeat CPU  0 instructions:  194000002 cycles:  118810823 heartbeat IPC: 1.58312 cumulative IPC: 1.24517 (Simulation time: 0 hr 6 min 0 sec) 
Heartbeat CPU  0 instructions:  195000003 cycles:  119386875 heartbeat IPC: 1.73596 cumulative IPC: 1.24888 (Simulation time: 0 hr 6 min 2 sec) 
Heartbeat CPU  0 instructions:  196000000 cycles:  120307290 heartbeat IPC: 1.08646 cumulative IPC: 1.24694 (Simulation time: 0 hr 6 min 4 sec) 
Heartbeat CPU  0 instructions:  197000002 cycles:  121320917 heartbeat IPC: 0.98656 cumulative IPC: 1.24356 (Simulation time: 0 hr 6 min 6 sec) 
Heartbeat CPU  0 instructions:  198000001 cycles:  122075143 heartbeat IPC: 1.32586 cumulative IPC: 1.24435 (Simulation time: 0 hr 6 min 8 sec) 
Heartbeat CPU  0 instructions:  199000001 cycles:  122657592 heartbeat IPC: 1.71689 cumulative IPC: 1.24782 (Simulation time: 0 hr 6 min 10 sec) 
Heartbeat CPU  0 instructions:  200000000 cycles:  123390622 heartbeat IPC: 1.36420 cumulative IPC: 1.24888 (Simulation time: 0 hr 6 min 13 sec) 
Heartbeat CPU  0 instructions:  201000003 cycles:  124327938 heartbeat IPC: 1.06688 cumulative IPC: 1.24677 (Simulation time: 0 hr 6 min 15 sec) 
Heartbeat CPU  0 instructions:  202000001 cycles:  125274367 heartbeat IPC: 1.05660 cumulative IPC: 1.24458 (Simulation time: 0 hr 6 min 17 sec) 
Heartbeat CPU  0 instructions:  203000001 cycles:  125920168 heartbeat IPC: 1.54846 cumulative IPC: 1.24695 (Simulation time: 0 hr 6 min 19 sec) 
Heartbeat CPU  0 instructions:  204000000 cycles:  126496054 heartbeat IPC: 1.73645 cumulative IPC: 1.25034 (Simulation time: 0 hr 6 min 21 sec) 
Heartbeat CPU  0 instructions:  205000002 cycles:  127398178 heartbeat IPC: 1.10850 cumulative IPC: 1.24882 (Simulation time: 0 hr 6 min 23 sec) 
Heartbeat CPU  0 instructions:  206000001 cycles:  128406876 heartbeat IPC: 0.99138 cumulative IPC: 1.24577 (Simulation time: 0 hr 6 min 25 sec) 
Heartbeat CPU  0 instructions:  207000000 cycles:  129175741 heartbeat IPC: 1.30062 cumulative IPC: 1.24626 (Simulation time: 0 hr 6 min 27 sec) 
Heartbeat CPU  0 instructions:  208000000 cycles:  129757312 heartbeat IPC: 1.71948 cumulative IPC: 1.24944 (Simulation time: 0 hr 6 min 29 sec) 
Heartbeat CPU  0 instructions:  209000001 cycles:  130479443 heartbeat IPC: 1.38479 cumulative IPC: 1.25057 (Simulation time: 0 hr 6 min 31 sec) 
Heartbeat CPU  0 instructions:  210000000 cycles:  131413318 heartbeat IPC: 1.07081 cumulative IPC: 1.24866 (Simulation time: 0 hr 6 min 33 sec) 
Heartbeat CPU  0 instructions:  211000003 cycles:  132449733 heartbeat IPC: 0.96487 cumulative IPC: 1.24536 (Simulation time: 0 hr 6 min 36 sec) 
Heartbeat CPU  0 instructions:  212000000 cycles:  133288252 heartbeat IPC: 1.19258 cumulative IPC: 1.24487 (Simulation time: 0 hr 6 min 38 sec) 
Heartbeat CPU  0 instructions:  213000002 cycles:  133934720 heartbeat IPC: 1.54687 cumulative IPC: 1.24702 (Simulation time: 0 hr 6 min 40 sec) 
Heartbeat CPU  0 instructions:  214000000 cycles:  134509030 heartbeat IPC: 1.74122 cumulative IPC: 1.25014 (Simulation time: 0 hr 6 min 42 sec) 
Heartbeat CPU  0 instructions:  215000002 cycles:  135416053 heartbeat IPC: 1.10251 cumulative IPC: 1.24868 (Simulation time: 0 hr 6 min 44 sec) 
Heartbeat CPU  0 instructions:  216000000 cycles:  136427052 heartbeat IPC: 0.98912 cumulative IPC: 1.24586 (Simulation time: 0 hr 6 min 46 sec) 
Heartbeat CPU  0 instructions:  217000001 cycles:  137186634 heartbeat IPC: 1.31651 cumulative IPC: 1.24644 (Simulation time: 0 hr 6 min 48 sec) 
Heartbeat CPU  0 instructions:  218000000 cycles:  137768886 heartbeat IPC: 1.71747 cumulative IPC: 1.24934 (Simulation time: 0 hr 6 min 50 sec) 
Heartbeat CPU  0 instructions:  219000000 cycles:  138500662 heartbeat IPC: 1.36654 cumulative IPC: 1.25024 (Simulation time: 0 hr 6 min 52 sec) 
Heartbeat CPU  0 instructions:  220000000 cycles:  139435470 heartbeat IPC: 1.06974 cumulative IPC: 1.24848 (Simulation time: 0 hr 6 min 54 sec) 
Heartbeat CPU  0 instructions:  221000001 cycles:  140385364 heartbeat IPC: 1.05275 cumulative IPC: 1.24657 (Simulation time: 0 hr 6 min 57 sec) 
Heartbeat CPU  0 instructions:  222000003 cycles:  141021361 heartbeat IPC: 1.57234 cumulative IPC: 1.24869 (Simulation time: 0 hr 6 min 59 sec) 
Heartbeat CPU  0 instructions:  223000000 cycles:  141596844 heartbeat IPC: 1.73767 cumulative IPC: 1.25155 (Simulation time: 0 hr 7 min 1 sec) 
Heartbeat CPU  0 instructions:  224000000 cycles:  142514968 heartbeat IPC: 1.08918 cumulative IPC: 1.25005 (Simulation time: 0 hr 7 min 3 sec) 
Heartbeat CPU  0 instructions:  225000001 cycles:  143519823 heartbeat IPC: 0.99517 cumulative IPC: 1.24749 (Simulation time: 0 hr 7 min 5 sec) 
Heartbeat CPU  0 instructions:  226000002 cycles:  144269209 heartbeat IPC: 1.33443 cumulative IPC: 1.24814 (Simulation time: 0 hr 7 min 7 sec) 
Heartbeat CPU  0 instructions:  227000001 cycles:  144849750 heartbeat IPC: 1.72253 cumulative IPC: 1.25085 (Simulation time: 0 hr 7 min 9 sec) 
Heartbeat CPU  0 instructions:  228000000 cycles:  145586445 heartbeat IPC: 1.35741 cumulative IPC: 1.25162 (Simulation time: 0 hr 7 min 11 sec) 
Heartbeat CPU  0 instructions:  229000003 cycles:  146525457 heartbeat IPC: 1.06495 cumulative IPC: 1.24992 (Simulation time: 0 hr 7 min 13 sec) 
Heartbeat CPU  0 instructions:  230000001 cycles:  147467484 heartbeat IPC: 1.06154 cumulative IPC: 1.24822 (Simulation time: 0 hr 7 min 15 sec) 
Heartbeat CPU  0 instructions:  231000002 cycles:  148102188 heartbeat IPC: 1.57554 cumulative IPC: 1.25020 (Simulation time: 0 hr 7 min 17 sec) 
Heartbeat CPU  0 instructions:  232000000 cycles:  148678619 heartbeat IPC: 1.73481 cumulative IPC: 1.25285 (Simulation time: 0 hr 7 min 19 sec) 
Heartbeat CPU  0 instructions:  233000002 cycles:  149587153 heartbeat IPC: 1.10068 cumulative IPC: 1.25155 (Simulation time: 0 hr 7 min 22 sec) 
Heartbeat CPU  0 instructions:  234000002 cycles:  150593410 heartbeat IPC: 0.99378 cumulative IPC: 1.24913 (Simulation time: 0 hr 7 min 24 sec) 
Heartbeat CPU  0 instructions:  235000000 cycles:  151339066 heartbeat IPC: 1.34110 cumulative IPC: 1.24977 (Simulation time: 0 hr 7 min 26 sec) 
Heartbeat CPU  0 instructions:  236000000 cycles:  151919617 heartbeat IPC: 1.72250 cumulative IPC: 1.25229 (Simulation time: 0 hr 7 min 28 sec) 
Heartbeat CPU  0 instructions:  237000003 cycles:  152654047 heartbeat IPC: 1.36160 cumulative IPC: 1.25303 (Simulation time: 0 hr 7 min 30 sec) 
Heartbeat CPU  0 instructions:  238000000 cycles:  153589815 heartbeat IPC: 1.06864 cumulative IPC: 1.25146 (Simulation time: 0 hr 7 min 32 sec) 
Heartbeat CPU  0 instructions:  239000000 cycles:  154525084 heartbeat IPC: 1.06921 cumulative IPC: 1.24993 (Simulation time: 0 hr 7 min 34 sec) 
Heartbeat CPU  0 instructions:  240000000 cycles:  155165962 heartbeat IPC: 1.56036 cumulative IPC: 1.25171 (Simulation time: 0 hr 7 min 36 sec) 
Heartbeat CPU  0 instructions:  241000000 cycles:  155741613 heartbeat IPC: 1.73716 cumulative IPC: 1.25420 (Simulation time: 0 hr 7 min 38 sec) 
Heartbeat CPU  0 instructions:  242000002 cycles:  156647077 heartbeat IPC: 1.10441 cumulative IPC: 1.25300 (Simulation time: 0 hr 7 min 40 sec) 
Heartbeat CPU  0 instructions:  243000001 cycles:  157648604 heartbeat IPC: 0.99847 cumulative IPC: 1.25077 (Simulation time: 0 hr 7 min 42 sec) 
Heartbeat CPU  0 instructions:  244000000 cycles:  158407378 heartbeat IPC: 1.31791 cumulative IPC: 1.25121 (Simulation time: 0 hr 7 min 45 sec) 
Heartbeat CPU  0 instructions:  245000001 cycles:  158988981 heartbeat IPC: 1.71939 cumulative IPC: 1.25357 (Simulation time: 0 hr 7 min 47 sec) 
Heartbeat CPU  0 instructions:  246000000 cycles:  159717296 heartbeat IPC: 1.37303 cumulative IPC: 1.25431 (Simulation time: 0 hr 7 min 49 sec) 
Heartbeat CPU  0 instructions:  247000001 cycles:  160647763 heartbeat IPC: 1.07473 cumulative IPC: 1.25289 (Simulation time: 0 hr 7 min 51 sec) 
Heartbeat CPU  0 instructions:  248000000 cycles:  161598200 heartbeat IPC: 1.05215 cumulative IPC: 1.25128 (Simulation time: 0 hr 7 min 53 sec) 
Heartbeat CPU  0 instructions:  249000003 cycles:  162239099 heartbeat IPC: 1.56031 cumulative IPC: 1.25294 (Simulation time: 0 hr 7 min 55 sec) 
Heartbeat CPU  0 instructions:  250000003 cycles:  162815535 heartbeat IPC: 1.73480 cumulative IPC: 1.25527 (Simulation time: 0 hr 7 min 57 sec) 
Heartbeat CPU  0 instructions:  251000002 cycles:  163729775 heartbeat IPC: 1.09380 cumulative IPC: 1.25404 (Simulation time: 0 hr 7 min 59 sec) 
Heartbeat CPU  0 instructions:  252000000 cycles:  164735558 heartbeat IPC: 0.99425 cumulative IPC: 1.25189 (Simulation time: 0 hr 8 min 1 sec) 
Heartbeat CPU  0 instructions:  253000002 cycles:  165494160 heartbeat IPC: 1.31822 cumulative IPC: 1.25230 (Simulation time: 0 hr 8 min 3 sec) 
Heartbeat CPU  0 instructions:  254000003 cycles:  166076284 heartbeat IPC: 1.71785 cumulative IPC: 1.25451 (Simulation time: 0 hr 8 min 5 sec) 
Heartbeat CPU  0 instructions:  255000002 cycles:  166816460 heartbeat IPC: 1.35103 cumulative IPC: 1.25509 (Simulation time: 0 hr 8 min 7 sec) 
Heartbeat CPU  0 instructions:  256000000 cycles:  167757889 heartbeat IPC: 1.06221 cumulative IPC: 1.25363 (Simulation time: 0 hr 8 min 10 sec) 
Heartbeat CPU  0 instructions:  257000001 cycles:  168696289 heartbeat IPC: 1.06564 cumulative IPC: 1.25222 (Simulation time: 0 hr 8 min 12 sec) 
Heartbeat CPU  0 instructions:  258000000 cycles:  169327012 heartbeat IPC: 1.58548 cumulative IPC: 1.25389 (Simulation time: 0 hr 8 min 14 sec) 
Heartbeat CPU  0 instructions:  259000000 cycles:  169903014 heartbeat IPC: 1.73611 cumulative IPC: 1.25608 (Simulation time: 0 hr 8 min 16 sec) 
Heartbeat CPU  0 instructions:  260000000 cycles:  170835697 heartbeat IPC: 1.07218 cumulative IPC: 1.25474 (Simulation time: 0 hr 8 min 18 sec) 
Heartbeat CPU  0 instructions:  261000003 cycles:  171825300 heartbeat IPC: 1.01051 cumulative IPC: 1.25286 (Simulation time: 0 hr 8 min 20 sec) 
Heartbeat CPU  0 instructions:  262000001 cycles:  172574158 heartbeat IPC: 1.33536 cumulative IPC: 1.25333 (Simulation time: 0 hr 8 min 22 sec) 
Heartbeat CPU  0 instructions:  263000002 cycles:  173153391 heartbeat IPC: 1.72642 cumulative IPC: 1.25544 (Simulation time: 0 hr 8 min 24 sec) 
Heartbeat CPU  0 instructions:  264000000 cycles:  173907928 heartbeat IPC: 1.32531 cumulative IPC: 1.25585 (Simulation time: 0 hr 8 min 26 sec) 
Heartbeat CPU  0 instructions:  265000000 cycles:  174897956 heartbeat IPC: 1.01007 cumulative IPC: 1.25400 (Simulation time: 0 hr 8 min 28 sec) 
Heartbeat CPU  0 instructions:  266000000 cycles:  175896266 heartbeat IPC: 1.00169 cumulative IPC: 1.25210 (Simulation time: 0 hr 8 min 31 sec) 
Heartbeat CPU  0 instructions:  267000002 cycles:  176713179 heartbeat IPC: 1.22412 cumulative IPC: 1.25193 (Simulation time: 0 hr 8 min 33 sec) 
Heartbeat CPU  0 instructions:  268000000 cycles:  177330003 heartbeat IPC: 1.62120 cumulative IPC: 1.25363 (Simulation time: 0 hr 8 min 35 sec) 
Heartbeat CPU  0 instructions:  269000002 cycles:  177904648 heartbeat IPC: 1.74021 cumulative IPC: 1.25571 (Simulation time: 0 hr 8 min 37 sec) 
Heartbeat CPU  0 instructions:  270000003 cycles:  179077962 heartbeat IPC: 0.85229 cumulative IPC: 1.25222 (Simulation time: 0 hr 8 min 39 sec) 
Heartbeat CPU  0 instructions:  271000001 cycles:  179969365 heartbeat IPC: 1.12182 cumulative IPC: 1.25137 (Simulation time: 0 hr 8 min 41 sec) 
Heartbeat CPU  0 instructions:  272000000 cycles:  180559914 heartbeat IPC: 1.69334 cumulative IPC: 1.25327 (Simulation time: 0 hr 8 min 43 sec) 
Heartbeat CPU  0 instructions:  273000001 cycles:  181196930 heartbeat IPC: 1.56982 cumulative IPC: 1.25473 (Simulation time: 0 hr 8 min 45 sec) 
Heartbeat CPU  0 instructions:  274000000 cycles:  182413860 heartbeat IPC: 0.82174 cumulative IPC: 1.25094 (Simulation time: 0 hr 8 min 47 sec) 
Heartbeat CPU  0 instructions:  275000003 cycles:  183184686 heartbeat IPC: 1.29731 cumulative IPC: 1.25120 (Simulation time: 0 hr 8 min 50 sec) 
Heartbeat CPU  0 instructions:  276000000 cycles:  183765225 heartbeat IPC: 1.72253 cumulative IPC: 1.25315 (Simulation time: 0 hr 8 min 52 sec) 
Heartbeat CPU  0 instructions:  277000001 cycles:  184539940 heartbeat IPC: 1.29080 cumulative IPC: 1.25335 (Simulation time: 0 hr 8 min 54 sec) 
Heartbeat CPU  0 instructions:  278000002 cycles:  185672261 heartbeat IPC: 0.88314 cumulative IPC: 1.25041 (Simulation time: 0 hr 8 min 56 sec) 
Heartbeat CPU  0 instructions:  279000003 cycles:  186409288 heartbeat IPC: 1.35680 cumulative IPC: 1.25096 (Simulation time: 0 hr 8 min 58 sec) 
Heartbeat CPU  0 instructions:  280000000 cycles:  186992195 heartbeat IPC: 1.71553 cumulative IPC: 1.25284 (Simulation time: 0 hr 9 min 0 sec) 
Heartbeat CPU  0 instructions:  281000003 cycles:  187803288 heartbeat IPC: 1.23291 cumulative IPC: 1.25273 (Simulation time: 0 hr 9 min 2 sec) 
Heartbeat CPU  0 instructions:  282000001 cycles:  188921455 heartbeat IPC: 0.89432 cumulative IPC: 1.24998 (Simulation time: 0 hr 9 min 4 sec) 
Heartbeat CPU  0 instructions:  283000003 cycles:  189660571 heartbeat IPC: 1.35297 cumulative IPC: 1.25050 (Simulation time: 0 hr 9 min 6 sec) 
Heartbeat CPU  0 instructions:  284000000 cycles:  190238056 heartbeat IPC: 1.73164 cumulative IPC: 1.25239 (Simulation time: 0 hr 9 min 8 sec) 
Heartbeat CPU  0 instructions:  285000002 cycles:  191138375 heartbeat IPC: 1.11072 cumulative IPC: 1.25153 (Simulation time: 0 hr 9 min 11 sec) 
Heartbeat CPU  0 instructions:  286000002 cycles:  192365663 heartbeat IPC: 0.81480 cumulative IPC: 1.24793 (Simulation time: 0 hr 9 min 13 sec) 
Heartbeat CPU  0 instructions:  287000003 cycles:  193266165 heartbeat IPC: 1.11049 cumulative IPC: 1.24711 (Simulation time: 0 hr 9 min 15 sec) 
Heartbeat CPU  0 instructions:  288000000 cycles:  193849634 heartbeat IPC: 1.71388 cumulative IPC: 1.24891 (Simulation time: 0 hr 9 min 17 sec) 
Heartbeat CPU  0 instructions:  289000001 cycles:  194564683 heartbeat IPC: 1.39851 cumulative IPC: 1.24962 (Simulation time: 0 hr 9 min 19 sec) 
Heartbeat CPU  0 instructions:  290000002 cycles:  195612321 heartbeat IPC: 0.95453 cumulative IPC: 1.24759 (Simulation time: 0 hr 9 min 21 sec) 
Heartbeat CPU  0 instructions:  291000003 cycles:  196730893 heartbeat IPC: 0.89400 cumulative IPC: 1.24501 (Simulation time: 0 hr 9 min 23 sec) 
Heartbeat CPU  0 instructions:  292000000 cycles:  197801945 heartbeat IPC: 0.93366 cumulative IPC: 1.24286 (Simulation time: 0 hr 9 min 26 sec) 
Heartbeat CPU  0 instructions:  293000001 cycles:  198455287 heartbeat IPC: 1.53059 cumulative IPC: 1.24407 (Simulation time: 0 hr 9 min 28 sec) 
Heartbeat CPU  0 instructions:  294000002 cycles:  199034625 heartbeat IPC: 1.72611 cumulative IPC: 1.24586 (Simulation time: 0 hr 9 min 30 sec) 
Heartbeat CPU  0 instructions:  295000003 cycles:  199963232 heartbeat IPC: 1.07688 cumulative IPC: 1.24486 (Simulation time: 0 hr 9 min 32 sec) 
Heartbeat CPU  0 instructions:  296000000 cycles:  200911843 heartbeat IPC: 1.05417 cumulative IPC: 1.24371 (Simulation time: 0 hr 9 min 34 sec) 
Heartbeat CPU  0 instructions:  297000002 cycles:  201862654 heartbeat IPC: 1.05174 cumulative IPC: 1.24256 (Simulation time: 0 hr 9 min 36 sec) 
Heartbeat CPU  0 instructions:  298000003 cycles:  202920361 heartbeat IPC: 0.94544 cumulative IPC: 1.24059 (Simulation time: 0 hr 9 min 38 sec) 
Heartbeat CPU  0 instructions:  299000001 cycles:  203746214 heartbeat IPC: 1.21087 cumulative IPC: 1.24044 (Simulation time: 0 hr 9 min 40 sec) 
Heartbeat CPU  0 instructions:  300000000 cycles:  204327056 heartbeat IPC: 1.72164 cumulative IPC: 1.24217 (Simulation time: 0 hr 9 min 42 sec) 
Heartbeat CPU  0 instructions:  301000000 cycles:  205131674 heartbeat IPC: 1.24283 cumulative IPC: 1.24218 (Simulation time: 0 hr 9 min 44 sec) 
Heartbeat CPU  0 instructions:  302000001 cycles:  206072689 heartbeat IPC: 1.06268 cumulative IPC: 1.24114 (Simulation time: 0 hr 9 min 47 sec) 
Heartbeat CPU  0 instructions:  303000003 cycles:  206993288 heartbeat IPC: 1.08625 cumulative IPC: 1.24027 (Simulation time: 0 hr 9 min 49 sec) 
Heartbeat CPU  0 instructions:  304000000 cycles:  207918259 heartbeat IPC: 1.08111 cumulative IPC: 1.23937 (Simulation time: 0 hr 9 min 51 sec) 
Heartbeat CPU  0 instructions:  305000000 cycles:  209055578 heartbeat IPC: 0.87926 cumulative IPC: 1.23690 (Simulation time: 0 hr 9 min 53 sec) 
Heartbeat CPU  0 instructions:  306000002 cycles:  209892389 heartbeat IPC: 1.19502 cumulative IPC: 1.23669 (Simulation time: 0 hr 9 min 55 sec) 
Heartbeat CPU  0 instructions:  307000001 cycles:  210476236 heartbeat IPC: 1.71278 cumulative IPC: 1.23835 (Simulation time: 0 hr 9 min 57 sec) 
Heartbeat CPU  0 instructions:  308000000 cycles:  211232240 heartbeat IPC: 1.32274 cumulative IPC: 1.23873 (Simulation time: 0 hr 9 min 59 sec) 
Heartbeat CPU  0 instructions:  309000002 cycles:  212183948 heartbeat IPC: 1.05074 cumulative IPC: 1.23767 (Simulation time: 0 hr 10 min 1 sec) 
Heartbeat CPU  0 instructions:  310000002 cycles:  213090960 heartbeat IPC: 1.10252 cumulative IPC: 1.23695 (Simulation time: 0 hr 10 min 3 sec) 
Heartbeat CPU  0 instructions:  311000002 cycles:  214025541 heartbeat IPC: 1.07000 cumulative IPC: 1.23604 (Simulation time: 0 hr 10 min 6 sec) 
Heartbeat CPU  0 instructions:  312000000 cycles:  215132690 heartbeat IPC: 0.90322 cumulative IPC: 1.23389 (Simulation time: 0 hr 10 min 8 sec) 
Heartbeat CPU  0 instructions:  313000003 cycles:  215914353 heartbeat IPC: 1.27933 cumulative IPC: 1.23410 (Simulation time: 0 hr 10 min 10 sec) 
Heartbeat CPU  0 instructions:  314000000 cycles:  216497664 heartbeat IPC: 1.71435 cumulative IPC: 1.23572 (Simulation time: 0 hr 10 min 12 sec) 
Heartbeat CPU  0 instructions:  315000003 cycles:  217278213 heartbeat IPC: 1.28115 cumulative IPC: 1.23592 (Simulation time: 0 hr 10 min 14 sec) 
Heartbeat CPU  0 instructions:  316000000 cycles:  218234619 heartbeat IPC: 1.04558 cumulative IPC: 1.23488 (Simulation time: 0 hr 10 min 16 sec) 
Heartbeat CPU  0 instructions:  317000002 cycles:  219232127 heartbeat IPC: 1.00250 cumulative IPC: 1.23356 (Simulation time: 0 hr 10 min 18 sec) 
Heartbeat CPU  0 instructions:  318000001 cycles:  220327089 heartbeat IPC: 0.91327 cumulative IPC: 1.23158 (Simulation time: 0 hr 10 min 20 sec) 
Heartbeat CPU  0 instructions:  319000002 cycles:  221117251 heartbeat IPC: 1.26556 cumulative IPC: 1.23173 (Simulation time: 0 hr 10 min 22 sec) 
Heartbeat CPU  0 instructions:  320000000 cycles:  221699977 heartbeat IPC: 1.71607 cumulative IPC: 1.23331 (Simulation time: 0 hr 10 min 24 sec) 
Heartbeat CPU  0 instructions:  321000000 cycles:  222495456 heartbeat IPC: 1.25710 cumulative IPC: 1.23342 (Simulation time: 0 hr 10 min 27 sec) 
Heartbeat CPU  0 instructions:  322000001 cycles:  223482527 heartbeat IPC: 1.01310 cumulative IPC: 1.23221 (Simulation time: 0 hr 10 min 29 sec) 
Heartbeat CPU  0 instructions:  323000000 cycles:  224490855 heartbeat IPC: 0.99174 cumulative IPC: 1.23088 (Simulation time: 0 hr 10 min 31 sec) 
Heartbeat CPU  0 instructions:  324000000 cycles:  225653222 heartbeat IPC: 0.86031 cumulative IPC: 1.22851 (Simulation time: 0 hr 10 min 33 sec) 
Heartbeat CPU  0 instructions:  325000000 cycles:  226470787 heartbeat IPC: 1.22314 cumulative IPC: 1.22849 (Simulation time: 0 hr 10 min 35 sec) 
Heartbeat CPU  0 instructions:  326000000 cycles:  227054579 heartbeat IPC: 1.71294 cumulative IPC: 1.23003 (Simulation time: 0 hr 10 min 37 sec) 
Heartbeat CPU  0 instructions:  327000001 cycles:  227765304 heartbeat IPC: 1.40702 cumulative IPC: 1.23071 (Simulation time: 0 hr 10 min 39 sec) 
Heartbeat CPU  0 instructions:  328000000 cycles:  228758283 heartbeat IPC: 1.00707 cumulative IPC: 1.22951 (Simulation time: 0 hr 10 min 41 sec) 
Heartbeat CPU  0 instructions:  329000000 cycles:  229739337 heartbeat IPC: 1.01931 cumulative IPC: 1.22841 (Simulation time: 0 hr 10 min 43 sec) 
Heartbeat CPU  0 instructions:  330000000 cycles:  230867314 heartbeat IPC: 0.88654 cumulative IPC: 1.22635 (Simulation time: 0 hr 10 min 46 sec) 
Heartbeat CPU  0 instructions:  331000003 cycles:  231675611 heartbeat IPC: 1.23717 cumulative IPC: 1.22640 (Simulation time: 0 hr 10 min 48 sec) 
Heartbeat CPU  0 instructions:  332000000 cycles:  232260319 heartbeat IPC: 1.71025 cumulative IPC: 1.22789 (Simulation time: 0 hr 10 min 50 sec) 
Heartbeat CPU  0 instructions:  333000000 cycles:  232989336 heartbeat IPC: 1.37171 cumulative IPC: 1.22845 (Simulation time: 0 hr 10 min 52 sec) 
Heartbeat CPU  0 instructions:  334000002 cycles:  234033962 heartbeat IPC: 0.95728 cumulative IPC: 1.22696 (Simulation time: 0 hr 10 min 54 sec) 
Heartbeat CPU  0 instructions:  335000002 cycles:  235059765 heartbeat IPC: 0.97485 cumulative IPC: 1.22561 (Simulation time: 0 hr 10 min 56 sec) 
Heartbeat CPU  0 instructions:  336000000 cycles:  236187562 heartbeat IPC: 0.88668 cumulative IPC: 1.22363 (Simulation time: 0 hr 10 min 58 sec) 
Heartbeat CPU  0 instructions:  337000003 cycles:  237017293 heartbeat IPC: 1.20521 cumulative IPC: 1.22355 (Simulation time: 0 hr 11 min 0 sec) 
Heartbeat CPU  0 instructions:  338000000 cycles:  237691707 heartbeat IPC: 1.48276 cumulative IPC: 1.22445 (Simulation time: 0 hr 11 min 2 sec) 
Heartbeat CPU  0 instructions:  339000001 cycles:  238271978 heartbeat IPC: 1.72333 cumulative IPC: 1.22594 (Simulation time: 0 hr 11 min 4 sec) 
Heartbeat CPU  0 instructions:  340000000 cycles:  239247342 heartbeat IPC: 1.02526 cumulative IPC: 1.22494 (Simulation time: 0 hr 11 min 7 sec) 
Heartbeat CPU  0 instructions:  341000000 cycles:  240291817 heartbeat IPC: 0.95742 cumulative IPC: 1.22352 (Simulation time: 0 hr 11 min 9 sec) 
Heartbeat CPU  0 instructions:  342000001 cycles:  241326540 heartbeat IPC: 0.96644 cumulative IPC: 1.22218 (Simulation time: 0 hr 11 min 11 sec) 
Heartbeat CPU  0 instructions:  343000001 cycles:  242044919 heartbeat IPC: 1.39202 cumulative IPC: 1.22279 (Simulation time: 0 hr 11 min 13 sec) 
Heartbeat CPU  0 instructions:  344000000 cycles:  242624504 heartbeat IPC: 1.72537 cumulative IPC: 1.22425 (Simulation time: 0 hr 11 min 15 sec) 
Heartbeat CPU  0 instructions:  345000002 cycles:  243514076 heartbeat IPC: 1.12414 cumulative IPC: 1.22381 (Simulation time: 0 hr 11 min 17 sec) 
Heartbeat CPU  0 instructions:  346000000 cycles:  244546276 heartbeat IPC: 0.96880 cumulative IPC: 1.22250 (Simulation time: 0 hr 11 min 19 sec) 
Heartbeat CPU  0 instructions:  347000000 cycles:  245628973 heartbeat IPC: 0.92362 cumulative IPC: 1.22090 (Simulation time: 0 hr 11 min 21 sec) 
Heartbeat CPU  0 instructions:  348000000 cycles:  246383545 heartbeat IPC: 1.32525 cumulative IPC: 1.22129 (Simulation time: 0 hr 11 min 24 sec) 
Heartbeat CPU  0 instructions:  349000003 cycles:  246968265 heartbeat IPC: 1.71023 cumulative IPC: 1.22269 (Simulation time: 0 hr 11 min 26 sec) 
Heartbeat CPU  0 instructions:  350000000 cycles:  247730691 heartbeat IPC: 1.31160 cumulative IPC: 1.22302 (Simulation time: 0 hr 11 min 28 sec) 
Heartbeat CPU  0 instructions:  351000000 cycles:  248776755 heartbeat IPC: 0.95596 cumulative IPC: 1.22166 (Simulation time: 0 hr 11 min 30 sec) 
Heartbeat CPU  0 instructions:  352000000 cycles:  249828960 heartbeat IPC: 0.95039 cumulative IPC: 1.22028 (Simulation time: 0 hr 11 min 32 sec) 
Heartbeat CPU  0 instructions:  353000001 cycles:  250567653 heartbeat IPC: 1.35374 cumulative IPC: 1.22076 (Simulation time: 0 hr 11 min 34 sec) 
Heartbeat CPU  0 instructions:  354000000 cycles:  251152109 heartbeat IPC: 1.71099 cumulative IPC: 1.22213 (Simulation time: 0 hr 11 min 36 sec) 
Heartbeat CPU  0 instructions:  355000002 cycles:  251942445 heartbeat IPC: 1.26529 cumulative IPC: 1.22230 (Simulation time: 0 hr 11 min 38 sec) 
Heartbeat CPU  0 instructions:  356000000 cycles:  252961247 heartbeat IPC: 0.98154 cumulative IPC: 1.22113 (Simulation time: 0 hr 11 min 40 sec) 
Heartbeat CPU  0 instructions:  357000000 cycles:  254004413 heartbeat IPC: 0.95862 cumulative IPC: 1.21983 (Simulation time: 0 hr 11 min 43 sec) 
Heartbeat CPU  0 instructions:  358000002 cycles:  254784846 heartbeat IPC: 1.28134 cumulative IPC: 1.22005 (Simulation time: 0 hr 11 min 45 sec) 
Heartbeat CPU  0 instructions:  359000000 cycles:  255366708 heartbeat IPC: 1.71862 cumulative IPC: 1.22142 (Simulation time: 0 hr 11 min 47 sec) 
Heartbeat CPU  0 instructions:  360000000 cycles:  256114538 heartbeat IPC: 1.33720 cumulative IPC: 1.22183 (Simulation time: 0 hr 11 min 49 sec) 
Heartbeat CPU  0 instructions:  361000002 cycles:  257080551 heartbeat IPC: 1.03518 cumulative IPC: 1.22099 (Simulation time: 0 hr 11 min 51 sec) 
Heartbeat CPU  0 instructions:  362000001 cycles:  258046295 heartbeat IPC: 1.03547 cumulative IPC: 1.22015 (Simulation time: 0 hr 11 min 53 sec) 
Heartbeat CPU  0 instructions:  363000002 cycles:  259026811 heartbeat IPC: 1.01987 cumulative IPC: 1.21924 (Simulation time: 0 hr 11 min 55 sec) 
Heartbeat CPU  0 instructions:  364000000 cycles:  259750832 heartbeat IPC: 1.38117 cumulative IPC: 1.21978 (Simulation time: 0 hr 11 min 57 sec) 
Heartbeat CPU  0 instructions:  365000002 cycles:  260332412 heartbeat IPC: 1.71946 cumulative IPC: 1.22112 (Simulation time: 0 hr 11 min 59 sec) 
Heartbeat CPU  0 instructions:  366000000 cycles:  261256263 heartbeat IPC: 1.08242 cumulative IPC: 1.22053 (Simulation time: 0 hr 12 min 1 sec) 
Heartbeat CPU  0 instructions:  367000000 cycles:  262327387 heartbeat IPC: 0.93360 cumulative IPC: 1.21913 (Simulation time: 0 hr 12 min 4 sec) 
Heartbeat CPU  0 instructions:  368000000 cycles:  263382192 heartbeat IPC: 0.94804 cumulative IPC: 1.21783 (Simulation time: 0 hr 12 min 6 sec) 
Heartbeat CPU  0 instructions:  369000001 cycles:  264133025 heartbeat IPC: 1.33186 cumulative IPC: 1.21822 (Simulation time: 0 hr 12 min 8 sec) 
Heartbeat CPU  0 instructions:  370000001 cycles:  264714924 heartbeat IPC: 1.71851 cumulative IPC: 1.21953 (Simulation time: 0 hr 12 min 10 sec) 
Heartbeat CPU  0 instructions:  371000000 cycles:  265646598 heartbeat IPC: 1.07334 cumulative IPC: 1.21892 (Simulation time: 0 hr 12 min 12 sec) 
Heartbeat CPU  0 instructions:  372000000 cycles:  266856746 heartbeat IPC: 0.82635 cumulative IPC: 1.21680 (Simulation time: 0 hr 12 min 14 sec) 
Heartbeat CPU  0 instructions:  373000001 cycles:  267852230 heartbeat IPC: 1.00454 cumulative IPC: 1.21586 (Simulation time: 0 hr 12 min 16 sec) 
Heartbeat CPU  0 instructions:  374000001 cycles:  268473479 heartbeat IPC: 1.60966 cumulative IPC: 1.21694 (Simulation time: 0 hr 12 min 18 sec) 
Heartbeat CPU  0 instructions:  375000000 cycles:  269050884 heartbeat IPC: 1.73188 cumulative IPC: 1.21826 (Simulation time: 0 hr 12 min 20 sec) 
Heartbeat CPU  0 instructions:  376000000 cycles:  270232861 heartbeat IPC: 0.84604 cumulative IPC: 1.21632 (Simulation time: 0 hr 12 min 23 sec) 
Heartbeat CPU  0 instructions:  377000001 cycles:  271416669 heartbeat IPC: 0.84473 cumulative IPC: 1.21439 (Simulation time: 0 hr 12 min 25 sec) 
Heartbeat CPU  0 instructions:  378000002 cycles:  272189020 heartbeat IPC: 1.29475 cumulative IPC: 1.21466 (Simulation time: 0 hr 12 min 27 sec) 
Heartbeat CPU  0 instructions:  379000001 cycles:  272772209 heartbeat IPC: 1.71471 cumulative IPC: 1.21593 (Simulation time: 0 hr 12 min 29 sec) 
Heartbeat CPU  0 instructions:  380000000 cycles:  273569437 heartbeat IPC: 1.25435 cumulative IPC: 1.21607 (Simulation time: 0 hr 12 min 31 sec) 
Heartbeat CPU  0 instructions:  381000001 cycles:  274703564 heartbeat IPC: 0.88174 cumulative IPC: 1.21443 (Simulation time: 0 hr 12 min 33 sec) 
Heartbeat CPU  0 instructions:  382000003 cycles:  275765986 heartbeat IPC: 0.94125 cumulative IPC: 1.21318 (Simulation time: 0 hr 12 min 35 sec) 
Heartbeat CPU  0 instructions:  383000000 cycles:  276501053 heartbeat IPC: 1.36042 cumulative IPC: 1.21364 (Simulation time: 0 hr 12 min 38 sec) 
Heartbeat CPU  0 instructions:  384000000 cycles:  277082953 heartbeat IPC: 1.71851 cumulative IPC: 1.21490 (Simulation time: 0 hr 12 min 40 sec) 
Heartbeat CPU  0 instructions:  385000000 cycles:  278070749 heartbeat IPC: 1.01235 cumulative IPC: 1.21405 (Simulation time: 0 hr 12 min 42 sec) 
Heartbeat CPU  0 instructions:  386000000 cycles:  279301855 heartbeat IPC: 0.81228 cumulative IPC: 1.21195 (Simulation time: 0 hr 12 min 44 sec) 
Heartbeat CPU  0 instructions:  387000000 cycles:  280334069 heartbeat IPC: 0.96879 cumulative IPC: 1.21089 (Simulation time: 0 hr 12 min 46 sec) 
Heartbeat CPU  0 instructions:  388000000 cycles:  280978172 heartbeat IPC: 1.55255 cumulative IPC: 1.21182 (Simulation time: 0 hr 12 min 48 sec) 
Heartbeat CPU  0 instructions:  389000000 cycles:  281559061 heartbeat IPC: 1.72150 cumulative IPC: 1.21306 (Simulation time: 0 hr 12 min 50 sec) 
Heartbeat CPU  0 instructions:  390000003 cycles:  282716133 heartbeat IPC: 0.86425 cumulative IPC: 1.21138 (Simulation time: 0 hr 12 min 53 sec) 
Heartbeat CPU  0 instructions:  391000003 cycles:  283975664 heartbeat IPC: 0.79395 cumulative IPC: 1.20919 (Simulation time: 0 hr 12 min 55 sec) 
Heartbeat CPU  0 instructions:  392000000 cycles:  284834171 heartbeat IPC: 1.16481 cumulative IPC: 1.20903 (Simulation time: 0 hr 12 min 57 sec) 
Heartbeat CPU  0 instructions:  393000001 cycles:  285417816 heartbeat IPC: 1.71337 cumulative IPC: 1.21025 (Simulation time: 0 hr 12 min 59 sec) 
Heartbeat CPU  0 instructions:  394000002 cycles:  286172984 heartbeat IPC: 1.32421 cumulative IPC: 1.21060 (Simulation time: 0 hr 13 min 1 sec) 
Heartbeat CPU  0 instructions:  395000002 cycles:  287346555 heartbeat IPC: 0.85210 cumulative IPC: 1.20888 (Simulation time: 0 hr 13 min 3 sec) 
Heartbeat CPU  0 instructions:  396000000 cycles:  288583756 heartbeat IPC: 0.80827 cumulative IPC: 1.20686 (Simulation time: 0 hr 13 min 5 sec) 
Heartbeat CPU  0 instructions:  397000000 cycles:  289497742 heartbeat IPC: 1.09411 cumulative IPC: 1.20644 (Simulation time: 0 hr 13 min 8 sec) 
Heartbeat CPU  0 instructions:  398000001 cycles:  290246513 heartbeat IPC: 1.33552 cumulative IPC: 1.20683 (Simulation time: 0 hr 13 min 10 sec) 
Heartbeat CPU  0 instructions:  399000000 cycles:  290829928 heartbeat IPC: 1.71404 cumulative IPC: 1.20803 (Simulation time: 0 hr 13 min 12 sec) 
Heartbeat CPU  0 instructions:  400000000 cycles:  291597848 heartbeat IPC: 1.30222 cumulative IPC: 1.20832 (Simulation time: 0 hr 13 min 14 sec) 
Heartbeat CPU  0 instructions:  401000002 cycles:  292687885 heartbeat IPC: 0.91740 cumulative IPC: 1.20705 (Simulation time: 0 hr 13 min 16 sec) 
Heartbeat CPU  0 instructions:  402000002 cycles:  293739695 heartbeat IPC: 0.95074 cumulative IPC: 1.20597 (Simulation time: 0 hr 13 min 18 sec) 
Heartbeat CPU  0 instructions:  403000002 cycles:  294716045 heartbeat IPC: 1.02422 cumulative IPC: 1.20526 (Simulation time: 0 hr 13 min 20 sec) 
Heartbeat CPU  0 instructions:  404000000 cycles:  295322806 heartbeat IPC: 1.64809 cumulative IPC: 1.20633 (Simulation time: 0 hr 13 min 22 sec) 
Heartbeat CPU  0 instructions:  405000001 cycles:  295934164 heartbeat IPC: 1.63570 cumulative IPC: 1.20737 (Simulation time: 0 hr 13 min 24 sec) 
Heartbeat CPU  0 instructions:  406000003 cycles:  297043296 heartbeat IPC: 0.90161 cumulative IPC: 1.20603 (Simulation time: 0 hr 13 min 27 sec) 
Heartbeat CPU  0 instructions:  407000000 cycles:  298114242 heartbeat IPC: 0.93375 cumulative IPC: 1.20489 (Simulation time: 0 hr 13 min 29 sec) 
Heartbeat CPU  0 instructions:  408000000 cycles:  299104735 heartbeat IPC: 1.00960 cumulative IPC: 1.20413 (Simulation time: 0 hr 13 min 31 sec) 
Heartbeat CPU  0 instructions:  409000001 cycles:  299810635 heartbeat IPC: 1.41663 cumulative IPC: 1.20472 (Simulation time: 0 hr 13 min 33 sec) 
Heartbeat CPU  0 instructions:  410000002 cycles:  300391581 heartbeat IPC: 1.72133 cumulative IPC: 1.20588 (Simulation time: 0 hr 13 min 35 sec) 
Heartbeat CPU  0 instructions:  411000001 cycles:  301415695 heartbeat IPC: 0.97645 cumulative IPC: 1.20497 (Simulation time: 0 hr 13 min 37 sec) 
Heartbeat CPU  0 instructions:  412000000 cycles:  302545959 heartbeat IPC: 0.88475 cumulative IPC: 1.20358 (Simulation time: 0 hr 13 min 39 sec) 
Heartbeat CPU  0 instructions:  413000001 cycles:  303584055 heartbeat IPC: 0.96330 cumulative IPC: 1.20262 (Simulation time: 0 hr 13 min 41 sec) 
Heartbeat CPU  0 instructions:  414000001 cycles:  304297862 heartbeat IPC: 1.40094 cumulative IPC: 1.20316 (Simulation time: 0 hr 13 min 44 sec) 
Heartbeat CPU  0 instructions:  415000000 cycles:  304875479 heartbeat IPC: 1.73125 cumulative IPC: 1.20433 (Simulation time: 0 hr 13 min 46 sec) 
Heartbeat CPU  0 instructions:  416000000 cycles:  305799227 heartbeat IPC: 1.08255 cumulative IPC: 1.20390 (Simulation time: 0 hr 13 min 48 sec) 
Heartbeat CPU  0 instructions:  417000003 cycles:  306832341 heartbeat IPC: 0.96795 cumulative IPC: 1.20297 (Simulation time: 0 hr 13 min 50 sec) 
Heartbeat CPU  0 instructions:  418000001 cycles:  307907063 heartbeat IPC: 0.93047 cumulative IPC: 1.20187 (Simulation time: 0 hr 13 min 52 sec) 
Heartbeat CPU  0 instructions:  419000000 cycles:  308921983 heartbeat IPC: 0.98530 cumulative IPC: 1.20104 (Simulation time: 0 hr 13 min 54 sec) 
Heartbeat CPU  0 instructions:  420000000 cycles:  309626113 heartbeat IPC: 1.42019 cumulative IPC: 1.20162 (Simulation time: 0 hr 13 min 56 sec) 
Heartbeat CPU  0 instructions:  421000001 cycles:  310203230 heartbeat IPC: 1.73275 cumulative IPC: 1.20277 (Simulation time: 0 hr 13 min 58 sec) 
Heartbeat CPU  0 instructions:  422000000 cycles:  311108298 heartbeat IPC: 1.10489 cumulative IPC: 1.20244 (Simulation time: 0 hr 14 min 0 sec) 
Heartbeat CPU  0 instructions:  423000000 cycles:  312045876 heartbeat IPC: 1.06658 cumulative IPC: 1.20196 (Simulation time: 0 hr 14 min 3 sec) 
Heartbeat CPU  0 instructions:  424000000 cycles:  312995890 heartbeat IPC: 1.05262 cumulative IPC: 1.20144 (Simulation time: 0 hr 14 min 5 sec) 
Heartbeat CPU  0 instructions:  425000001 cycles:  314014236 heartbeat IPC: 0.98199 cumulative IPC: 1.20061 (Simulation time: 0 hr 14 min 7 sec) 
Heartbeat CPU  0 instructions:  426000001 cycles:  314895924 heartbeat IPC: 1.13419 cumulative IPC: 1.20040 (Simulation time: 0 hr 14 min 9 sec) 
Heartbeat CPU  0 instructions:  427000000 cycles:  315479975 heartbeat IPC: 1.71218 cumulative IPC: 1.20149 (Simulation time: 0 hr 14 min 11 sec) 
Heartbeat CPU  0 instructions:  428000000 cycles:  316166100 heartbeat IPC: 1.45746 cumulative IPC: 1.20214 (Simulation time: 0 hr 14 min 13 sec) 
Heartbeat CPU  0 instructions:  429000002 cycles:  317111944 heartbeat IPC: 1.05726 cumulative IPC: 1.20164 (Simulation time: 0 hr 14 min 15 sec) 
Heartbeat CPU  0 instructions:  430000001 cycles:  318057013 heartbeat IPC: 1.05812 cumulative IPC: 1.20114 (Simulation time: 0 hr 14 min 17 sec) 
Heartbeat CPU  0 instructions:  431000001 cycles:  318990162 heartbeat IPC: 1.07164 cumulative IPC: 1.20071 (Simulation time: 0 hr 14 min 19 sec) 
Heartbeat CPU  0 instructions:  432000000 cycles:  319989817 heartbeat IPC: 1.00034 cumulative IPC: 1.19998 (Simulation time: 0 hr 14 min 21 sec) 
Heartbeat CPU  0 instructions:  433000003 cycles:  320685673 heartbeat IPC: 1.43708 cumulative IPC: 1.20058 (Simulation time: 0 hr 14 min 23 sec) 
Heartbeat CPU  0 instructions:  434000003 cycles:  321262667 heartbeat IPC: 1.73312 cumulative IPC: 1.20168 (Simulation time: 0 hr 14 min 26 sec) 
Heartbeat CPU  0 instructions:  435000000 cycles:  322152525 heartbeat IPC: 1.12377 cumulative IPC: 1.20143 (Simulation time: 0 hr 14 min 28 sec) 
Heartbeat CPU  0 instructions:  436000000 cycles:  323082117 heartbeat IPC: 1.07574 cumulative IPC: 1.20102 (Simulation time: 0 hr 14 min 30 sec) 
Heartbeat CPU  0 instructions:  437000002 cycles:  324028241 heartbeat IPC: 1.05695 cumulative IPC: 1.20053 (Simulation time: 0 hr 14 min 32 sec) 
Heartbeat CPU  0 instructions:  438000000 cycles:  325014078 heartbeat IPC: 1.01436 cumulative IPC: 1.19988 (Simulation time: 0 hr 14 min 34 sec) 
Heartbeat CPU  0 instructions:  439000002 cycles:  325706367 heartbeat IPC: 1.44449 cumulative IPC: 1.20048 (Simulation time: 0 hr 14 min 36 sec) 
Heartbeat CPU  0 instructions:  440000000 cycles:  326284638 heartbeat IPC: 1.72929 cumulative IPC: 1.20156 (Simulation time: 0 hr 14 min 38 sec) 
Heartbeat CPU  0 instructions:  441000002 cycles:  327162376 heartbeat IPC: 1.13929 cumulative IPC: 1.20137 (Simulation time: 0 hr 14 min 40 sec) 
Heartbeat CPU  0 instructions:  442000000 cycles:  328095540 heartbeat IPC: 1.07162 cumulative IPC: 1.20094 (Simulation time: 0 hr 14 min 42 sec) 
Heartbeat CPU  0 instructions:  443000002 cycles:  329046585 heartbeat IPC: 1.05148 cumulative IPC: 1.20044 (Simulation time: 0 hr 14 min 44 sec) 
Heartbeat CPU  0 instructions:  444000000 cycles:  330053907 heartbeat IPC: 0.99273 cumulative IPC: 1.19971 (Simulation time: 0 hr 14 min 46 sec) 
Heartbeat CPU  0 instructions:  445000000 cycles:  330714968 heartbeat IPC: 1.51272 cumulative IPC: 1.20043 (Simulation time: 0 hr 14 min 49 sec) 
Heartbeat CPU  0 instructions:  446000001 cycles:  331295740 heartbeat IPC: 1.72185 cumulative IPC: 1.20149 (Simulation time: 0 hr 14 min 51 sec) 
Heartbeat CPU  0 instructions:  447000003 cycles:  332204733 heartbeat IPC: 1.10012 cumulative IPC: 1.20117 (Simulation time: 0 hr 14 min 53 sec) 
Heartbeat CPU  0 instructions:  448000000 cycles:  333130343 heartbeat IPC: 1.08037 cumulative IPC: 1.20078 (Simulation time: 0 hr 14 min 55 sec) 
Heartbeat CPU  0 instructions:  449000001 cycles:  334067120 heartbeat IPC: 1.06749 cumulative IPC: 1.20035 (Simulation time: 0 hr 14 min 57 sec) 
Heartbeat CPU  0 instructions:  450000000 cycles:  335077644 heartbeat IPC: 0.98958 cumulative IPC: 1.19962 (Simulation time: 0 hr 14 min 59 sec) 
Heartbeat CPU  0 instructions:  451000003 cycles:  335919426 heartbeat IPC: 1.18796 cumulative IPC: 1.19959 (Simulation time: 0 hr 15 min 1 sec) 
Heartbeat CPU  0 instructions:  452000000 cycles:  336504865 heartbeat IPC: 1.70811 cumulative IPC: 1.20060 (Simulation time: 0 hr 15 min 3 sec) 
Heartbeat CPU  0 instructions:  453000000 cycles:  337204223 heartbeat IPC: 1.42988 cumulative IPC: 1.20115 (Simulation time: 0 hr 15 min 5 sec) 
Heartbeat CPU  0 instructions:  454000002 cycles:  338130555 heartbeat IPC: 1.07953 cumulative IPC: 1.20077 (Simulation time: 0 hr 15 min 7 sec) 
Heartbeat CPU  0 instructions:  455000002 cycles:  339062459 heartbeat IPC: 1.07307 cumulative IPC: 1.20036 (Simulation time: 0 hr 15 min 9 sec) 
Heartbeat CPU  0 instructions:  456000000 cycles:  339981013 heartbeat IPC: 1.08867 cumulative IPC: 1.20002 (Simulation time: 0 hr 15 min 12 sec) 
Heartbeat CPU  0 instructions:  457000003 cycles:  340951119 heartbeat IPC: 1.03082 cumulative IPC: 1.19947 (Simulation time: 0 hr 15 min 14 sec) 
Heartbeat CPU  0 instructions:  458000001 cycles:  341659125 heartbeat IPC: 1.41241 cumulative IPC: 1.19997 (Simulation time: 0 hr 15 min 16 sec) 
Heartbeat CPU  0 instructions:  459000000 cycles:  342241218 heartbeat IPC: 1.71794 cumulative IPC: 1.20098 (Simulation time: 0 hr 15 min 18 sec) 
Heartbeat CPU  0 instructions:  460000000 cycles:  343126367 heartbeat IPC: 1.12975 cumulative IPC: 1.20077 (Simulation time: 0 hr 15 min 20 sec) 
Heartbeat CPU  0 instructions:  461000002 cycles:  344064770 heartbeat IPC: 1.06564 cumulative IPC: 1.20035 (Simulation time: 0 hr 15 min 22 sec) 
Heartbeat CPU  0 instructions:  462000000 cycles:  344980018 heartbeat IPC: 1.09260 cumulative IPC: 1.20002 (Simulation time: 0 hr 15 min 24 sec) 
Heartbeat CPU  0 instructions:  463000000 cycles:  345971656 heartbeat IPC: 1.00843 cumulative IPC: 1.19939 (Simulation time: 0 hr 15 min 26 sec) 
Heartbeat CPU  0 instructions:  464000000 cycles:  346664795 heartbeat IPC: 1.44271 cumulative IPC: 1.19995 (Simulation time: 0 hr 15 min 28 sec) 
Heartbeat CPU  0 instructions:  465000000 cycles:  347243915 heartbeat IPC: 1.72676 cumulative IPC: 1.20095 (Simulation time: 0 hr 15 min 30 sec) 
Heartbeat CPU  0 instructions:  466000002 cycles:  348107684 heartbeat IPC: 1.15772 cumulative IPC: 1.20083 (Simulation time: 0 hr 15 min 32 sec) 
Heartbeat CPU  0 instructions:  467000002 cycles:  349047785 heartbeat IPC: 1.06372 cumulative IPC: 1.20041 (Simulation time: 0 hr 15 min 35 sec) 
Heartbeat CPU  0 instructions:  468000000 cycles:  350030402 heartbeat IPC: 1.01769 cumulative IPC: 1.19982 (Simulation time: 0 hr 15 min 37 sec) 
Heartbeat CPU  0 instructions:  469000001 cycles:  350903102 heartbeat IPC: 1.14587 cumulative IPC: 1.19967 (Simulation time: 0 hr 15 min 39 sec) 
Heartbeat CPU  0 instructions:  470000002 cycles:  351489889 heartbeat IPC: 1.70420 cumulative IPC: 1.20063 (Simulation time: 0 hr 15 min 41 sec) 
Heartbeat CPU  0 instructions:  471000001 cycles:  352148245 heartbeat IPC: 1.51893 cumulative IPC: 1.20131 (Simulation time: 0 hr 15 min 43 sec) 
Heartbeat CPU  0 instructions:  472000000 cycles:  353092199 heartbeat IPC: 1.05937 cumulative IPC: 1.20088 (Simulation time: 0 hr 15 min 45 sec) 
Heartbeat CPU  0 instructions:  473000003 cycles:  354029215 heartbeat IPC: 1.06722 cumulative IPC: 1.20048 (Simulation time: 0 hr 15 min 47 sec) 
Heartbeat CPU  0 instructions:  474000003 cycles:  355081935 heartbeat IPC: 0.94992 cumulative IPC: 1.19963 (Simulation time: 0 hr 15 min 49 sec) 
Heartbeat CPU  0 instructions:  475000003 cycles:  355926297 heartbeat IPC: 1.18433 cumulative IPC: 1.19959 (Simulation time: 0 hr 15 min 51 sec) 
Heartbeat CPU  0 instructions:  476000000 cycles:  356561825 heartbeat IPC: 1.57349 cumulative IPC: 1.20035 (Simulation time: 0 hr 15 min 53 sec) 
Heartbeat CPU  0 instructions:  477000000 cycles:  357142055 heartbeat IPC: 1.72345 cumulative IPC: 1.20131 (Simulation time: 0 hr 15 min 55 sec) 
Heartbeat CPU  0 instructions:  478000002 cycles:  358067774 heartbeat IPC: 1.08024 cumulative IPC: 1.20096 (Simulation time: 0 hr 15 min 58 sec) 
Heartbeat CPU  0 instructions:  479000003 cycles:  359002425 heartbeat IPC: 1.06992 cumulative IPC: 1.20057 (Simulation time: 0 hr 16 min 0 sec) 
Heartbeat CPU  0 instructions:  480000000 cycles:  359983448 heartbeat IPC: 1.01934 cumulative IPC: 1.20001 (Simulation time: 0 hr 16 min 2 sec) 
Heartbeat CPU  0 instructions:  481000002 cycles:  360758814 heartbeat IPC: 1.28972 cumulative IPC: 1.20023 (Simulation time: 0 hr 16 min 4 sec) 
Heartbeat CPU  0 instructions:  482000002 cycles:  361340168 heartbeat IPC: 1.72012 cumulative IPC: 1.20118 (Simulation time: 0 hr 16 min 6 sec) 
Heartbeat CPU  0 instructions:  483000003 cycles:  362141145 heartbeat IPC: 1.24848 cumulative IPC: 1.20130 (Simulation time: 0 hr 16 min 8 sec) 
Heartbeat CPU  0 instructions:  484000000 cycles:  363053903 heartbeat IPC: 1.09558 cumulative IPC: 1.20099 (Simulation time: 0 hr 16 min 10 sec) 
Heartbeat CPU  0 instructions:  485000003 cycles:  363981867 heartbeat IPC: 1.07763 cumulative IPC: 1.20064 (Simulation time: 0 hr 16 min 12 sec) 
Heartbeat CPU  0 instructions:  486000002 cycles:  364959755 heartbeat IPC: 1.02261 cumulative IPC: 1.20010 (Simulation time: 0 hr 16 min 14 sec) 
Heartbeat CPU  0 instructions:  487000002 cycles:  365906795 heartbeat IPC: 1.05592 cumulative IPC: 1.19967 (Simulation time: 0 hr 16 min 16 sec) 
Heartbeat CPU  0 instructions:  488000000 cycles:  366491173 heartbeat IPC: 1.71122 cumulative IPC: 1.20060 (Simulation time: 0 hr 16 min 19 sec) 
Heartbeat CPU  0 instructions:  489000000 cycles:  367148482 heartbeat IPC: 1.52135 cumulative IPC: 1.20125 (Simulation time: 0 hr 16 min 21 sec) 
Heartbeat CPU  0 instructions:  490000000 cycles:  368084879 heartbeat IPC: 1.06792 cumulative IPC: 1.20086 (Simulation time: 0 hr 16 min 23 sec) 
Heartbeat CPU  0 instructions:  491000002 cycles:  369011549 heartbeat IPC: 1.07913 cumulative IPC: 1.20052 (Simulation time: 0 hr 16 min 25 sec) 
Heartbeat CPU  0 instructions:  492000000 cycles:  369975793 heartbeat IPC: 1.03708 cumulative IPC: 1.20004 (Simulation time: 0 hr 16 min 27 sec) 
Heartbeat CPU  0 instructions:  493000002 cycles:  370973686 heartbeat IPC: 1.00211 cumulative IPC: 1.19943 (Simulation time: 0 hr 16 min 29 sec) 
Heartbeat CPU  0 instructions:  494000000 cycles:  371602472 heartbeat IPC: 1.59036 cumulative IPC: 1.20018 (Simulation time: 0 hr 16 min 31 sec) 
Heartbeat CPU  0 instructions:  495000001 cycles:  372180944 heartbeat IPC: 1.72869 cumulative IPC: 1.20111 (Simulation time: 0 hr 16 min 33 sec) 
Heartbeat CPU  0 instructions:  496000000 cycles:  373120834 heartbeat IPC: 1.06395 cumulative IPC: 1.20072 (Simulation time: 0 hr 16 min 35 sec) 
Heartbeat CPU  0 instructions:  497000001 cycles:  374057812 heartbeat IPC: 1.06726 cumulative IPC: 1.20034 (Simulation time: 0 hr 16 min 37 sec) 
Heartbeat CPU  0 instructions:  498000000 cycles:  375001078 heartbeat IPC: 1.06015 cumulative IPC: 1.19994 (Simulation time: 0 hr 16 min 39 sec) 
Heartbeat CPU  0 instructions:  499000002 cycles:  375996333 heartbeat IPC: 1.00477 cumulative IPC: 1.19936 (Simulation time: 0 hr 16 min 42 sec) 
Heartbeat CPU  0 instructions:  500000000 cycles:  376751230 heartbeat IPC: 1.32468 cumulative IPC: 1.19964 (Simulation time: 0 hr 16 min 44 sec) 
Heartbeat CPU  0 instructions:  501000002 cycles:  377330117 heartbeat IPC: 1.72746 cumulative IPC: 1.20056 (Simulation time: 0 hr 16 min 46 sec) 
Heartbeat CPU  0 instructions:  502000000 cycles:  378210501 heartbeat IPC: 1.13587 cumulative IPC: 1.20039 (Simulation time: 0 hr 16 min 48 sec) 
Heartbeat CPU  0 instructions:  503000000 cycles:  379128906 heartbeat IPC: 1.08884 cumulative IPC: 1.20008 (Simulation time: 0 hr 16 min 50 sec) 
Heartbeat CPU  0 instructions:  504000000 cycles:  380073459 heartbeat IPC: 1.05870 cumulative IPC: 1.19969 (Simulation time: 0 hr 16 min 52 sec) 
Heartbeat CPU  0 instructions:  505000000 cycles:  381068525 heartbeat IPC: 1.00496 cumulative IPC: 1.19911 (Simulation time: 0 hr 16 min 54 sec) 
Heartbeat CPU  0 instructions:  506000001 cycles:  382043744 heartbeat IPC: 1.02541 cumulative IPC: 1.19861 (Simulation time: 0 hr 16 min 56 sec) 
Heartbeat CPU  0 instructions:  507000000 cycles:  382630459 heartbeat IPC: 1.70440 cumulative IPC: 1.19949 (Simulation time: 0 hr 16 min 58 sec) 
Heartbeat CPU  0 instructions:  508000000 cycles:  383316078 heartbeat IPC: 1.45854 cumulative IPC: 1.20001 (Simulation time: 0 hr 17 min 0 sec) 
Heartbeat CPU  0 instructions:  509000003 cycles:  384273424 heartbeat IPC: 1.04456 cumulative IPC: 1.19957 (Simulation time: 0 hr 17 min 2 sec) 
Heartbeat CPU  0 instructions:  510000002 cycles:  385187108 heartbeat IPC: 1.09447 cumulative IPC: 1.19929 (Simulation time: 0 hr 17 min 5 sec) 
Heartbeat CPU  0 instructions:  511000001 cycles:  386124333 heartbeat IPC: 1.06698 cumulative IPC: 1.19893 (Simulation time: 0 hr 17 min 7 sec) 
Heartbeat CPU  0 instructions:  512000000 cycles:  387225826 heartbeat IPC: 0.90786 cumulative IPC: 1.19800 (Simulation time: 0 hr 17 min 9 sec) 
Heartbeat CPU  0 instructions:  513000000 cycles:  388050726 heartbeat IPC: 1.21227 cumulative IPC: 1.19803 (Simulation time: 0 hr 17 min 11 sec) 
Heartbeat CPU  0 instructions:  514000000 cycles:  388633701 heartbeat IPC: 1.71534 cumulative IPC: 1.19891 (Simulation time: 0 hr 17 min 13 sec) 
Heartbeat CPU  0 instructions:  515000000 cycles:  389391412 heartbeat IPC: 1.31976 cumulative IPC: 1.19917 (Simulation time: 0 hr 17 min 15 sec) 
Heartbeat CPU  0 instructions:  516000000 cycles:  390337042 heartbeat IPC: 1.05750 cumulative IPC: 1.19878 (Simulation time: 0 hr 17 min 17 sec) 
Heartbeat CPU  0 instructions:  517000000 cycles:  391242560 heartbeat IPC: 1.10434 cumulative IPC: 1.19854 (Simulation time: 0 hr 17 min 19 sec) 
Heartbeat CPU  0 instructions:  518000003 cycles:  392186021 heartbeat IPC: 1.05993 cumulative IPC: 1.19816 (Simulation time: 0 hr 17 min 21 sec) 
Heartbeat CPU  0 instructions:  519000002 cycles:  393251643 heartbeat IPC: 0.93842 cumulative IPC: 1.19737 (Simulation time: 0 hr 17 min 23 sec) 
Heartbeat CPU  0 instructions:  520000000 cycles:  394047003 heartbeat IPC: 1.25729 cumulative IPC: 1.19751 (Simulation time: 0 hr 17 min 26 sec) 
Heartbeat CPU  0 instructions:  521000003 cycles:  394629135 heartbeat IPC: 1.71783 cumulative IPC: 1.19837 (Simulation time: 0 hr 17 min 28 sec) 
Heartbeat CPU  0 instructions:  522000001 cycles:  395424873 heartbeat IPC: 1.25669 cumulative IPC: 1.19850 (Simulation time: 0 hr 17 min 30 sec) 
Heartbeat CPU  0 instructions:  523000000 cycles:  396361217 heartbeat IPC: 1.06798 cumulative IPC: 1.19816 (Simulation time: 0 hr 17 min 32 sec) 
Heartbeat CPU  0 instructions:  524000000 cycles:  397260047 heartbeat IPC: 1.11256 cumulative IPC: 1.19794 (Simulation time: 0 hr 17 min 34 sec) 
Heartbeat CPU  0 instructions:  525000001 cycles:  398219215 heartbeat IPC: 1.04257 cumulative IPC: 1.19752 (Simulation time: 0 hr 17 min 36 sec) 
Heartbeat CPU  0 instructions:  526000002 cycles:  399248558 heartbeat IPC: 0.97149 cumulative IPC: 1.19687 (Simulation time: 0 hr 17 min 38 sec) 
Heartbeat CPU  0 instructions:  527000002 cycles:  400019359 heartbeat IPC: 1.29735 cumulative IPC: 1.19708 (Simulation time: 0 hr 17 min 40 sec) 
Heartbeat CPU  0 instructions:  528000000 cycles:  400599374 heartbeat IPC: 1.72409 cumulative IPC: 1.19794 (Simulation time: 0 hr 17 min 42 sec) 
Heartbeat CPU  0 instructions:  529000003 cycles:  401439526 heartbeat IPC: 1.19026 cumulative IPC: 1.19792 (Simulation time: 0 hr 17 min 44 sec) 
Heartbeat CPU  0 instructions:  530000003 cycles:  402367786 heartbeat IPC: 1.07728 cumulative IPC: 1.19761 (Simulation time: 0 hr 17 min 46 sec) 
Heartbeat CPU  0 instructions:  531000002 cycles:  403279001 heartbeat IPC: 1.09743 cumulative IPC: 1.19736 (Simulation time: 0 hr 17 min 49 sec) 
Heartbeat CPU  0 instructions:  532000000 cycles:  404237780 heartbeat IPC: 1.04299 cumulative IPC: 1.19694 (Simulation time: 0 hr 17 min 51 sec) 
Heartbeat CPU  0 instructions:  533000000 cycles:  405321802 heartbeat IPC: 0.92249 cumulative IPC: 1.19612 (Simulation time: 0 hr 17 min 53 sec) 
[...]
Core_0_L1I_writeback_hit 0
Core_0_L1I_writeback_miss 0
Core_0_L1I_prefetch_requested 0
Core_0_L1I_prefetch_issued 0
Core_0_L1I_prefetch_useful 0
Core_0_L1I_prefetch_useless 0
Core_0_L1I_prefetch_late 0
Core_0_L1I_average_miss_latency 186.76106

Core_0_L2C_total_access 175202770
Core_0_L2C_total_hit 136531472
Core_0_L2C_total_miss 38671298
Core_0_L2C_loads 20931331
Core_0_L2C_load_hit 14589586
Core_0_L2C_load_miss 6341745
Core_0_L2C_RFOs 16004442
Core_0_L2C_RFO_hit 137328
Core_0_L2C_RFO_miss 15867114
Core_0_L2C_prefetches 106159184
Core_0_L2C_prefetch_hit 89704245
Core_0_L2C_prefetch_miss 16454939
Core_0_L2C_writebacks 32107813
Core_0_L2C_writeback_hit 32100313
Core_0_L2C_writeback_miss 7500
Core_0_L2C_prefetch_requested 266472917
Core_0_L2C_prefetch_issued 199018231
Core_0_L2C_prefetch_useful 13204556
Core_0_L2C_prefetch_useless 6062124
Core_0_L2C_prefetch_late 181427
Core_0_L2C_average_miss_latency 368.66561

Core_0_LLC_total_access 68458564
Core_0_LLC_total_hit 16883453
Core_0_LLC_total_miss 51575111
Core_0_LLC_loads 6162885
Core_0_LLC_load_hit 5180415
Core_0_LLC_load_miss 982470
Core_0_LLC_RFOs 15867102
Core_0_LLC_RFO_hit 565304
Core_0_LLC_RFO_miss 15301798
Core_0_LLC_prefetches 16633648
Core_0_LLC_prefetch_hit 4808330
Core_0_LLC_prefetch_miss 11825318
Core_0_LLC_writebacks 29794929
Core_0_LLC_writeback_hit 6329404
Core_0_LLC_writeback_miss 23465525
Core_0_LLC_prefetch_requested 0
Core_0_LLC_prefetch_issued 0
Core_0_LLC_prefetch_useful 90104
Core_0_LLC_prefetch_useless 14333495
Core_0_LLC_prefetch_late 0
Core_0_LLC_average_miss_latency 244.92801

Core_0_major_page_fault 0
Core_0_minor_page_fault 401483


L2C -64>	(-16,1)	(3,16)	(-13,0)	(1,212)	(4,5)	(-8,0)	(8,0)	(0,7)	(-5,0)	(-41,0)	(2,45)	(-1,29)	(31,0)	(47,0)	(15,0)	(-11,0)	
L2C -63>	(46,1)	(17,1)	(47,6)	(34,1)	(14,1)	(0,2)	(1,148)	(16,1)	(32,2)	(42,1)	(2,16)	(55,1)	(3,5)	(45,0)	(58,0)	(63,2)	
L2C -62>	(16,2)	(34,3)	(60,15)	(20,2)	(2,9)	(61,17)	(8,20)	(1,179)	(57,4)	(31,2)	(35,2)	(36,4)	(15,1)	(62,8)	(-1,19)	(21,3)	
L2C -61>	(55,20)	(61,90)	(1,189)	(-2,10)	(0,9)	(2,23)	(-1,29)	(60,19)	(5,1)	(63,4)	(57,6)	(52,6)	(24,32)	(53,16)	(58,9)	(50,3)	
L2C -60>	(58,11)	(60,85)	(52,11)	(54,64)	(1,221)	(57,27)	(62,7)	(50,8)	(55,8)	(42,11)	(56,4)	(8,1)	(24,13)	(31,11)	(39,24)	(53,6)	
L2C -59>	(26,11)	(52,10)	(59,71)	(55,6)	(60,5)	(1,163)	(35,1)	(38,5)	(54,22)	(49,9)	(56,7)	(10,16)	(5,15)	(44,15)	(0,58)	(46,10)	
L2C -58>	(22,11)	(58,161)	(61,14)	(45,48)	(4,13)	(47,33)	(35,1)	(32,27)	(-5,38)	(53,32)	(29,18)	(26,38)	(37,32)	(40,16)	(0,104)	(21,27)	
L2C -57>	(59,6)	(57,125)	(-2,50)	(55,33)	(47,14)	(1,190)	(2,1)	(46,14)	(50,5)	(52,16)	(54,25)	(60,32)	(29,82)	(0,57)	(33,15)	(56,5)	
L2C -56>	(57,50)	(3,1)	(56,133)	(31,69)	(13,10)	(26,17)	(46,10)	(35,15)	(17,25)	(60,23)	(-1,28)	(52,26)	(21,14)	(0,64)	(61,8)	(1,150)	
L2C -55>	(39,64)	(-2,28)	(53,8)	(55,137)	(11,20)	(58,17)	(61,12)	(0,69)	(3,1)	(60,20)	(42,44)	(52,41)	(-5,30)	(49,15)	(57,28)	(13,37)	
L2C -54>	(0,80)	(1,2)	(38,15)	(23,43)	(59,8)	(-6,22)	(41,73)	(52,59)	(54,229)	(46,32)	(39,40)	(36,119)	(62,12)	(57,87)	(-2,124)	(3,28)	
L2C -53>	(-5,30)	(53,63)	(37,30)	(-3,48)	(55,35)	(45,40)	(13,34)	(26,46)	(1,190)	(33,1)	(29,41)	(9,21)	(58,53)	(32,55)	(57,18)	(47,40)	
L2C -52>	(1,118)	(-6,25)	(52,145)	(-4,8)	(-1,39)	(50,32)	(-2,74)	(49,58)	(-3,27)	(57,19)	(55,33)	(-5,35)	(10,54)	(43,13)	(2,1)	(47,41)	
L2C -51>	(3,19)	(16,1)	(1,234)	(-5,30)	(36,64)	(23,86)	(-1,84)	(47,25)	(-3,55)	(0,203)	(31,38)	(10,50)	(51,249)	(38,38)	(46,155)	(25,73)	
L2C -50>	(24,90)	(47,151)	(3,102)	(-3,65)	(-8,64)	(16,76)	(-10,29)	(39,83)	(29,85)	(1,1)	(45,71)	(34,79)	(55,91)	(-4,100)	(53,61)	(26,78)	
L2C -49>	(-3,48)	(57,39)	(2,1)	(-6,21)	(54,70)	(42,41)	(49,183)	(-1,60)	(-2,52)	(-5,52)	(1,163)	(60,18)	(28,43)	(41,47)	(52,48)	(50,33)	
L2C -48>	(-3,12)	(34,1)	(21,24)	(63,3)	(22,55)	(56,20)	(1,139)	(-9,26)	(18,38)	(48,118)	(32,37)	(0,76)	(-1,48)	(42,17)	(47,21)	(26,24)	
L2C -47>	(58,14)	(-1,45)	(-3,62)	(49,65)	(-5,32)	(50,39)	(52,54)	(0,83)	(-2,85)	(1,2)	(47,168)	(55,46)	(42,38)	(21,96)	(60,13)	(-13,9)	
L2C -46>	(-1,69)	(56,13)	(44,66)	(1,94)	(-2,12)	(7,96)	(-5,45)	(39,41)	(52,45)	(0,61)	(13,44)	(46,130)	(-6,62)	(4,30)	(50,22)	(27,1)	
L2C -45>	(53,15)	(14,1)	(44,44)	(0,84)	(58,11)	(37,51)	(-10,19)	(52,17)	(50,32)	(47,39)	(39,29)	(-5,50)	(55,13)	(45,130)	(-2,62)	(1,188)	
L2C -44>	(44,233)	(0,160)	(29,115)	(-2,117)	(-3,120)	(-16,12)	(55,18)	(-10,25)	(47,94)	(51,43)	(-6,44)	(-11,36)	(-8,66)	(-17,1)	(53,14)	(18,73)	
L2C -43>	(12,51)	(17,76)	(-8,34)	(-9,60)	(43,167)	(50,45)	(-3,68)	(20,44)	(34,71)	(1,2)	(46,25)	(51,32)	(4,104)	(25,35)	(-5,44)	(41,50)	
L2C -42>	(-5,149)	(55,145)	(-6,55)	(6,1)	(24,149)	(3,136)	(-8,117)	(36,130)	(51,24)	(58,47)	(-12,68)	(45,98)	(39,157)	(26,211)	(38,33)	(46,45)	
L2C -41>	(52,55)	(-1,140)	(41,161)	(62,5)	(20,64)	(42,54)	(-6,41)	(-11,72)	(56,11)	(49,62)	(50,15)	(9,1)	(0,127)	(-3,71)	(-5,56)	(-8,56)	
L2C -40>	(-13,15)	(55,54)	(47,25)	(1,131)	(34,21)	(40,72)	(-4,25)	(-2,69)	(35,18)	(-10,20)	(58,4)	(-8,27)	(45,24)	(-7,16)	(0,33)	(12,1)	
L2C -39>	(44,71)	(-2,89)	(39,181)	(60,11)	(-16,22)	(-10,64)	(2,1)	(50,52)	(-4,32)	(57,24)	(0,126)	(-3,45)	(-11,26)	(-5,94)	(-8,68)	(1,117)	
L2C -38>	(33,61)	(-8,47)	(41,41)	(13,60)	(19,1)	(52,22)	(28,54)	(-9,20)	(38,162)	(-6,43)	(-11,47)	(-19,19)	(-1,127)	(-5,54)	(-13,28)	(47,85)	
L2C -37>	(42,69)	(16,94)	(52,23)	(-8,43)	(-13,52)	(1,1)	(40,38)	(37,209)	(0,63)	(55,31)	(-3,141)	(-5,48)	(-2,72)	(50,31)	(-12,21)	(39,127)	
L2C -36>	(-2,23)	(5,79)	(-3,113)	(47,31)	(-6,40)	(-5,44)	(0,85)	(-1,119)	(36,165)	(39,40)	(-11,33)	(28,64)	(-12,1)	(-10,48)	(1,104)	(41,51)	
L2C -35>	(43,22)	(-16,23)	(35,137)	(38,12)	(8,31)	(33,1)	(47,12)	(13,40)	(-6,13)	(50,32)	(4,30)	(0,96)	(17,51)	(-17,17)	(55,9)	(2,24)	
L2C -34>	(28,35)	(-5,67)	(-4,13)	(-3,31)	(-12,17)	(-10,29)	(0,155)	(29,60)	(37,71)	(-8,46)	(-1,1)	(5,115)	(18,58)	(34,156)	(-11,19)	(39,50)	
L2C -33>	(1,1)	(-19,84)	(54,40)	(39,111)	(31,114)	(17,53)	(-6,107)	(15,75)	(48,17)	(-9,39)	(-13,39)	(-5,67)	(5,86)	(28,187)	(-16,38)	(43,39)	
L2C -32>	(52,42)	(-13,21)	(-5,41)	(-20,23)	(-12,21)	(-10,38)	(-9,1)	(39,40)	(16,57)	(32,142)	(45,59)	(50,17)	(-15,24)	(0,111)	(-7,57)	(-2,58)	
L2C -31>	(-11,21)	(-18,16)	(-2,47)	(9,1)	(-7,10)	(-3,48)	(-8,32)	(-1,63)	(-6,27)	(41,60)	(44,20)	(1,151)	(31,84)	(47,21)	(-5,33)	(-23,7)	
L2C -30>	(-8,45)	(-1,134)	(30,211)	(0,83)	(-13,53)	(5,1)	(2,91)	(-20,19)	(36,31)	(-5,47)	(-9,72)	(-26,16)	(44,98)	(29,240)	(-4,61)	(-6,56)	
L2C -29>	(0,49)	(31,107)	(47,18)	(-20,61)	(-1,53)	(-13,23)	(2,36)	(30,175)	(18,52)	(29,81)	(-5,23)	(16,53)	(-8,18)	(26,52)	(33,1)	(1,126)	
L2C -28>	(-11,43)	(-2,105)	(1,114)	(25,52)	(-13,77)	(-3,83)	(41,52)	(-5,43)	(-15,25)	(19,1)	(28,160)	(42,33)	(-14,30)	(7,54)	(-6,47)	(46,29)	
L2C -27>	(1,224)	(-5,72)	(-13,44)	(27,215)	(-21,66)	(-34,1)	(-2,102)	(32,97)	(47,43)	(-8,57)	(-7,135)	(-4,30)	(29,88)	(-20,70)	(-10,48)	(42,44)	
L2C -26>	(-5,82)	(-2,73)	(-18,111)	(-23,59)	(-8,49)	(-3,105)	(-11,79)	(-4,36)	(16,166)	(-1,2)	(26,199)	(-7,39)	(8,74)	(1,106)	(-16,41)	(0,29)	
L2C -25>	(0,70)	(-13,50)	(25,183)	(52,21)	(60,6)	(4,1)	(-6,49)	(2,119)	(-9,21)	(47,21)	(-8,40)	(-16,43)	(1,155)	(-3,43)	(28,90)	(-11,68)	
L2C -24>	(-10,35)	(24,193)	(-3,109)	(-16,31)	(-21,16)	(39,68)	(1,1)	(37,79)	(0,88)	(-15,76)	(27,77)	(-5,125)	(-2,84)	(-8,51)	(60,5)	(57,6)	
L2C -23>	(-2,54)	(-10,71)	(-3,101)	(-13,80)	(-21,85)	(23,169)	(-6,92)	(44,33)	(-15,28)	(35,1)	(55,26)	(-11,66)	(45,15)	(-8,92)	(2,110)	(33,80)	
L2C -22>	(-13,45)	(-14,24)	(22,136)	(-6,27)	(16,29)	(45,19)	(-10,26)	(-5,58)	(3,66)	(34,14)	(52,13)	(-20,28)	(-4,81)	(60,5)	(57,4)	(1,5)	
L2C -21>	(-4,36)	(-5,85)	(-16,38)	(-8,55)	(1,118)	(-13,59)	(15,1)	(-18,34)	(39,31)	(-10,46)	(-2,64)	(21,151)	(-11,37)	(-3,65)	(32,40)	(31,33)	
L2C -20>	(-8,85)	(-6,72)	(-16,38)	(52,19)	(-5,34)	(46,26)	(57,11)	(0,122)	(-13,56)	(-18,56)	(-1,161)	(-3,89)	(20,172)	(49,54)	(11,1)	(7,57)	
L2C -19>	(-7,115)	(-20,37)	(27,61)	(-3,50)	(-10,119)	(-5,81)	(47,25)	(36,29)	(-4,34)	(-8,91)	(3,116)	(32,61)	(-18,52)	(-2,80)	(19,189)	(-25,1)	
L2C -18>	(-10,114)	(-3,170)	(-16,1)	(-1,203)	(-2,95)	(5,184)	(-21,115)	(-5,196)	(-15,97)	(-13,146)	(-11,103)	(-8,187)	(-4,82)	(44,98)	(-18,124)	(-26,65)	
L2C -17>	(-5,31)	(-18,69)	(-4,52)	(21,1)	(17,119)	(-9,111)	(1,170)	(-19,26)	(-8,25)	(52,9)	(5,63)	(10,46)	(-11,31)	(-3,48)	(-14,67)	(-1,135)	
L2C -16>	(-12,48)	(16,211)	(-10,77)	(-11,35)	(-6,14)	(-4,31)	(-2,89)	(-5,62)	(-8,68)	(22,1)	(29,47)	(1,41)	(-13,73)	(-3,34)	(-9,11)	(52,13)	
L2C -15>	(-10,50)	(-8,90)	(-2,66)	(-11,78)	(-13,55)	(-21,34)	(15,124)	(16,1)	(-6,70)	(-9,23)	(-26,34)	(-5,78)	(47,16)	(-3,58)	(-16,74)	(-1,154)	
L2C -14>	(-13,54)	(-21,43)	(-5,170)	(-10,60)	(-12,53)	(-4,86)	(-8,67)	(-3,38)	(27,1)	(-23,47)	(-7,118)	(-2,107)	(-18,61)	(-15,71)	(-17,27)	(-9,24)	
L2C -13>	(-16,129)	(-7,88)	(-42,1)	(-1,144)	(-14,49)	(-12,45)	(-10,91)	(-19,89)	(-6,113)	(-8,137)	(-18,122)	(-3,176)	(-11,91)	(-5,146)	(-2,154)	(-9,70)	
L2C -12>	(-13,43)	(-6,49)	(-11,56)	(-21,47)	(-14,54)	(-8,91)	(-4,78)	(-3,70)	(-9,48)	(1,1)	(-26,36)	(12,165)	(-16,42)	(-5,41)	(4,73)	(-1,143)	
L2C -11>	(-3,56)	(-2,119)	(42,33)	(-8,75)	(-4,53)	(3,220)	(-5,98)	(-18,77)	(-12,49)	(-15,57)	(24,1)	(-10,64)	(-13,88)	(-7,82)	(8,99)	(-16,48)	
L2C -10>	(-6,36)	(-3,64)	(-1,133)	(-5,61)	(-16,35)	(-13,45)	(-38,1)	(-21,39)	(-11,75)	(-19,29)	(-18,26)	(7,58)	(-2,59)	(-10,23)	(-7,14)	(-8,39)	
L2C -9>	(-2,49)	(-8,60)	(-7,23)	(-18,19)	(-9,87)	(-1,134)	(-3,49)	(-4,52)	(-15,14)	(-11,8)	(6,1)	(-5,50)	(-12,13)	(2,50)	(-10,24)	(-13,22)	
L2C -8>	(-10,91)	(-5,84)	(-1,166)	(-11,101)	(-3,94)	(8,188)	(-2,156)	(-16,58)	(-18,65)	(-7,53)	(-8,105)	(-12,66)	(-6,62)	(15,1)	(-13,71)	(-4,55)	
L2C -7>	(-8,57)	(-6,26)	(1,146)	(-10,23)	(-13,40)	(-3,59)	(-1,136)	(2,129)	(9,1)	(-9,16)	(7,91)	(-11,36)	(-5,47)	(-2,56)	(-16,25)	(-4,27)	
L2C -6>	(-9,56)	(-10,41)	(-3,28)	(-2,71)	(-23,1)	(-8,23)	(-7,38)	(-17,14)	(-1,99)	(-12,21)	(-5,50)	(-15,13)	(1,159)	(3,101)	(-4,37)	(-13,38)	
L2C -5>	(1,179)	(-13,61)	(-6,36)	(4,1)	(5,156)	(-7,23)	(-4,36)	(8,107)	(-3,177)	(-10,32)	(3,128)	(-8,45)	(-2,175)	(-1,217)	(-5,48)	(2,121)	
L2C -4>	(3,62)	(-20,5)	(5,66)	(-18,12)	(1,109)	(-9,24)	(7,55)	(-1,187)	(-4,54)	(2,87)	(8,52)	(4,1)	(-2,73)	(33,13)	(24,7)	(-8,18)	
L2C -3>	(3,22)	(-2,79)	(4,30)	(-3,32)	(-5,22)	(13,8)	(0,12)	(-1,233)	(-15,9)	(-22,1)	(1,72)	(8,11)	(5,37)	(21,8)	(2,61)	(-10,20)	
L2C -2>	(-10,2)	(-8,2)	(1,38)	(-1,228)	(-5,8)	(-4,5)	(-2,40)	(2,8)	(56,1)	(7,5)	(-3,16)	(-13,4)	(4,13)	(-6,4)	(5,9)	(3,14)	
L2C -1>	(-3,4)	(27,1)	(3,1)	(11,1)	(6,1)	(-21,1)	(-2,18)	(2,2)	(-13,1)	(4,1)	(-4,2)	(-5,0)	(-1,182)	(-15,0)	(60,0)	(16,0)	
L2C 0>	(1,34)	(0,132)	(13,4)	(-3,9)	(5,7)	(-1,34)	(-2,6)	(6,4)	(9,4)	(8,7)	(12,1)	(-6,3)	(-13,2)	(2,5)	(10,3)	(-8,5)	
L2C 1>	(4,3)	(1,206)	(-9,1)	(3,15)	(5,3)	(-3,1)	(15,1)	(2,34)	(-51,1)	(10,1)	(-2,3)	(-26,1)	(20,0)	(24,0)	(-37,1)	(17,0)	
L2C 2>	(5,4)	(1,224)	(8,2)	(3,15)	(-53,1)	(-63,1)	(6,2)	(0,2)	(-7,1)	(4,1)	(-3,3)	(-1,69)	(-50,1)	(2,37)	(-22,1)	(-9,1)	
L2C 3>	(1,255)	(5,33)	(-11,8)	(-2,50)	(4,20)	(-1,44)	(-7,7)	(6,1)	(-5,24)	(8,24)	(0,7)	(-8,8)	(-4,24)	(3,53)	(-3,7)	(2,61)	
L2C 4>	(-4,24)	(2,90)	(-8,1)	(27,8)	(-5,53)	(4,64)	(1,231)	(-21,11)	(5,27)	(-13,23)	(-17,8)	(-2,50)	(6,17)	(-3,64)	(-1,126)	(3,57)	
L2C 5>	(-3,55)	(-4,65)	(-1,139)	(34,25)	(4,39)	(-15,30)	(-8,34)	(21,23)	(3,129)	(0,61)	(-5,49)	(29,19)	(2,1)	(-29,19)	(1,183)	(-9,23)	
L2C 6>	(-10,15)	(-18,26)	(0,31)	(-8,29)	(-11,26)	(-1,148)	(-24,13)	(-6,83)	(-9,20)	(30,1)	(-16,22)	(23,19)	(-3,22)	(1,111)	(-14,9)	(-13,18)	
L2C 7>	(1,143)	(-7,49)	(-15,39)	(-3,56)	(-2,92)	(0,33)	(-5,33)	(34,4)	(-20,18)	(37,14)	(-13,19)	(-8,54)	(8,1)	(-26,24)	(42,4)	(-10,24)	
L2C 8>	(1,173)	(-1,223)	(-10,45)	(-18,64)	(4,1)	(-16,56)	(-4,76)	(-5,65)	(-3,74)	(44,17)	(-6,45)	(-13,47)	(-8,154)	(0,90)	(-21,44)	(-14,35)	
L2C 9>	(-5,52)	(-10,36)	(-6,31)	(2,93)	(-17,24)	(-14,19)	(-9,117)	(-4,25)	(0,36)	(9,70)	(8,1)	(-1,182)	(-12,24)	(-2,77)	(-13,37)	(-30,23)	
L2C 10>	(-13,113)	(-15,82)	(-10,234)	(-1,1)	(-8,104)	(-18,111)	(-7,128)	(-2,128)	(-23,73)	(-9,101)	(47,10)	(-3,148)	(-17,41)	(2,108)	(39,24)	(0,183)	
L2C 11>	(-11,98)	(-16,58)	(-13,28)	(-1,178)	(-18,27)	(1,62)	(-6,42)	(-3,87)	(15,1)	(-24,34)	(-5,46)	(0,81)	(31,20)	(-8,73)	(-14,13)	(-10,58)	
L2C 12>	(-4,81)	(-15,84)	(0,104)	(-12,187)	(-5,56)	(-2,213)	(-26,74)	(-21,76)	(-16,25)	(-25,87)	(-11,1)	(19,68)	(-20,78)	(-9,30)	(-13,103)	(-8,100)	
L2C 13>	(-5,46)	(-12,28)	(30,1)	(-13,131)	(-8,36)	(0,60)	(-16,37)	(-7,28)	(-15,38)	(-18,54)	(-11,54)	(-4,44)	(-1,121)	(-10,35)	(-2,69)	(-20,61)	
L2C 14>	(-1,187)	(-8,45)	(-9,31)	(-14,85)	(-5,17)	(-4,20)	(15,28)	(-11,20)	(-10,1)	(-6,24)	(0,47)	(-21,21)	(-17,13)	(-3,36)	(-19,21)	(12,19)	
L2C 15>	(-12,132)	(0,140)	(-2,253)	(-10,124)	(-4,104)	(-5,199)	(-15,245)	(-13,223)	(-29,123)	(-8,185)	(-3,232)	(-1,1)	(-34,104)	(-7,202)	(-28,131)	(-26,182)	
L2C 16>	(-13,91)	(-8,222)	(-6,116)	(-5,126)	(-23,90)	(-16,230)	(-2,69)	(-11,84)	(11,70)	(17,1)	(-15,106)	(-18,83)	(0,90)	(-3,137)	(-1,240)	(-10,114)	
L2C 17>	(-45,1)	(-9,27)	(-12,18)	(-1,183)	(18,14)	(-4,29)	(0,18)	(-6,9)	(-17,63)	(-20,46)	(-8,35)	(-39,23)	(-2,34)	(2,17)	(11,37)	(-11,13)	
L2C 18>	(0,116)	(-5,85)	(-23,60)	(-21,125)	(-8,90)	(1,1)	(-18,195)	(-26,89)	(-2,120)	(13,64)	(-17,43)	(34,22)	(-13,102)	(-3,111)	(-11,53)	(-15,70)	
L2C 19>	(-16,41)	(-1,134)	(-21,44)	(13,2)	(-19,121)	(0,52)	(-24,49)	(-5,39)	(-10,36)	(-8,74)	(-13,103)	(-6,44)	(-11,47)	(-4,47)	(31,17)	(-3,63)	
L2C 20>	(1,2)	(-2,107)	(-10,189)	(-5,107)	(-20,203)	(-23,119)	(-12,133)	(-1,170)	(-4,93)	(-8,88)	(-3,51)	(-13,137)	(-7,124)	(0,131)	(29,73)	(-21,67)	
L2C 21>	(-3,99)	(-5,103)	(-13,120)	(-2,96)	(-8,116)	(-21,247)	(-11,159)	(-14,45)	(1,1)	(0,227)	(-6,113)	(-17,25)	(-1,244)	(-29,102)	(-18,91)	(-16,160)	
L2C 22>	(-9,132)	(-6,62)	(-13,69)	(17,117)	(-16,42)	(-5,40)	(-22,196)	(0,167)	(-19,55)	(-18,68)	(-11,58)	(-34,22)	(1,1)	(-3,69)	(-15,21)	(-1,205)	
L2C 23>	(-13,105)	(-7,108)	(-12,49)	(-16,73)	(-2,105)	(13,68)	(-31,102)	(-29,74)	(-15,71)	(26,98)	(-43,1)	(29,52)	(-8,162)	(-26,88)	(0,114)	(-5,112)	
L2C 24>	(0,160)	(-1,240)	(-3,150)	(-46,1)	(-24,180)	(-2,88)	(-8,112)	(-26,98)	(-18,89)	(-5,192)	(-20,26)	(-16,100)	(-13,89)	(11,43)	(-23,95)	(-21,109)	
L2C 25>	(-4,64)	(-10,88)	(-9,25)	(-23,86)	(-15,139)	(-5,84)	(-25,208)	(-12,69)	(-7,82)	(3,1)	(-20,92)	(-2,110)	(-3,40)	(0,113)	(-13,88)	(-17,31)	
L2C 26>	(-4,63)	(-3,194)	(-13,106)	(-18,123)	(-10,162)	(-15,108)	(-5,91)	(-8,130)	(0,108)	(-26,216)	(26,27)	(-17,70)	(3,76)	(-1,1)	(-7,94)	(-2,162)	
L2C 27>	(-1,184)	(-4,20)	(-21,45)	(-18,55)	(0,130)	(-8,90)	(4,1)	(-6,45)	(-3,116)	(15,38)	(-19,52)	(-11,61)	(-14,58)	(23,12)	(-5,29)	(-27,143)	
L2C 28>	(27,7)	(-13,111)	(-10,110)	(19,14)	(0,80)	(-18,70)	(-12,78)	(-2,160)	(-3,49)	(-8,50)	(-26,65)	(-15,90)	(-6,1)	(-1,167)	(11,40)	(-28,137)	
L2C 29>	(-5,210)	(-11,161)	(-18,128)	(15,49)	(19,25)	(-14,54)	(0,217)	(-30,138)	(-16,149)	(-10,85)	(-13,138)	(18,44)	(-1,2)	(13,67)	(-29,200)	(-8,157)	
L2C 30>	(-25,27)	(9,44)	(-1,1)	(-2,148)	(-13,162)	(-14,55)	(-15,122)	(-3,56)	(-22,51)	(0,80)	(-26,56)	(-7,63)	(-8,83)	(6,34)	(-17,45)	(-34,41)	
L2C 31>	(11,50)	(-12,91)	(-10,195)	(-34,1)	(-16,146)	(-23,161)	(-7,59)	(-26,89)	(-11,78)	(-5,100)	(-2,132)	(-8,184)	(-9,39)	(-6,156)	(-30,107)	(-29,155)	
L2C 32>	(-8,73)	(-19,73)	(-24,73)	(0,112)	(-18,60)	(-11,69)	(-27,35)	(-5,47)	(-2,59)	(-1,195)	(2,1)	(-6,65)	(-21,108)	(10,44)	(-32,131)	(-16,156)	
L2C 33>	(-7,109)	(-30,46)	(0,138)	(-15,179)	(-12,208)	(-39,89)	(-18,162)	(18,1)	(-10,163)	(-33,215)	(-11,38)	(-2,180)	(-21,79)	(-8,105)	(-26,105)	(-4,64)	
L2C 34>	(-3,62)	(-8,55)	(-2,79)	(0,110)	(-10,74)	(-5,82)	(-49,1)	(-34,252)	(-15,85)	(-18,69)	(-29,55)	(-31,70)	(21,16)	(-23,57)	(-12,27)	(-17,129)	
L2C 35>	(-18,38)	(-3,89)	(-9,100)	(2,43)	(-11,60)	(-19,46)	(-13,48)	(-35,186)	(-1,162)	(0,54)	(4,34)	(-6,1)	(-17,63)	(-5,65)	(-10,17)	(-4,47)	
L2C 36>	(-56,1)	(-31,96)	(-6,25)	(-16,58)	(-18,125)	(-11,46)	(-23,52)	(1,96)	(-29,33)	(-13,55)	(-12,54)	(-8,66)	(8,66)	(-10,70)	(-5,83)	(-36,168)	
L2C 37>	(-6,59)	(-3,98)	(-13,57)	(-18,134)	(-23,28)	(-14,29)	(-16,141)	(8,47)	(-2,2)	(-1,168)	(-5,59)	(-11,99)	(-37,166)	(-10,31)	(-8,74)	(-32,45)	
L2C 38>	(-8,140)	(-4,44)	(-35,1)	(-38,200)	(-20,158)	(-7,85)	(14,15)	(-13,57)	(-5,78)	(-9,32)	(-2,183)	(-15,79)	(-3,41)	(-10,59)	(-18,75)	(0,151)	
L2C 39>	(-3,62)	(-22,33)	(-23,1)	(-39,144)	(-6,36)	(3,40)	(-2,70)	(-13,95)	(-21,113)	(-15,64)	(-7,33)	(-16,108)	(-29,56)	(-8,56)	(-5,72)	(-31,83)	
L2C 40>	(-14,50)	(-24,62)	(-11,114)	(8,28)	(0,98)	(-5,76)	(-21,58)	(-8,53)	(-6,76)	(12,34)	(-19,74)	(-9,41)	(-40,123)	(9,1)	(-32,49)	(-1,177)	
L2C 41>	(0,132)	(-5,127)	(-1,1)	(-2,178)	(-12,62)	(-15,76)	(-13,134)	(6,60)	(-10,101)	(-8,114)	(-7,98)	(-29,40)	(-18,163)	(-4,67)	(-41,225)	(-3,68)	
L2C 42>	(-11,96)	(-8,180)	(-1,1)	(-19,70)	(-34,115)	(-2,112)	(-24,137)	(-6,121)	(-42,173)	(-10,161)	(-5,151)	(-18,152)	(-22,46)	(-14,56)	(-3,144)	(-29,132)	
L2C 43>	(1,2)	(-26,148)	(-13,96)	(-34,23)	(-39,65)	(-12,57)	(-4,146)	(-2,76)	(-8,50)	(-20,49)	(-10,77)	(-21,83)	(-30,43)	(-11,42)	(-33,46)	(-7,68)	
L2C 44>	(-3,179)	(-6,77)	(-44,212)	(-7,114)	(-12,41)	(-16,110)	(-25,64)	(-29,118)	(0,228)	(-18,146)	(-1,2)	(-26,151)	(-5,121)	(8,68)	(-24,66)	(-23,114)	
L2C 45>	(-10,26)	(-14,49)	(-3,123)	(-5,69)	(13,22)	(-4,19)	(-13,79)	(-6,88)	(-15,1)	(-8,73)	(-11,80)	(-2,19)	(0,115)	(-9,29)	(-18,63)	(-1,139)	
L2C 46>	(-20,105)	(-3,45)	(-1,72)	(-31,78)	(-4,35)	(-13,91)	(-44,1)	(-7,72)	(-15,75)	(-18,92)	(-10,77)	(-8,48)	(-2,151)	(-5,84)	(-36,93)	(1,73)	
L2C 47>	(-2,106)	(-13,204)	(-8,162)	(-47,213)	(-24,1)	(-4,56)	(-3,222)	(0,155)	(-6,96)	(-39,123)	(-23,134)	(-5,128)	(-1,162)	(-11,98)	(-7,47)	(-16,75)	
L2C 48>	(-4,38)	(8,1)	(-48,86)	(-19,28)	(-10,12)	(-26,26)	(-14,53)	(0,48)	(-9,30)	(-13,42)	(-3,28)	(-5,21)	(-31,14)	(-6,41)	(-27,28)	(-1,145)	
L2C 49>	(-5,181)	(-8,131)	(-13,129)	(-3,134)	(-18,154)	(-10,145)	(-49,236)	(-4,57)	(0,163)	(-2,160)	(-26,73)	(-25,48)	(-12,77)	(-37,1)	(-7,155)	(1,129)	
L2C 50>	(-18,63)	(-14,62)	(-37,55)	(-24,52)	(-3,235)	(0,1)	(-15,57)	(-10,80)	(-13,155)	(-1,205)	(-21,71)	(-7,30)	(-9,87)	(-8,145)	(-50,160)	(-6,135)	
L2C 51>	(-5,103)	(-8,46)	(-12,79)	(-4,53)	(-30,26)	(-23,49)	(-10,52)	(-15,57)	(-51,99)	(-7,83)	(-26,33)	(-2,143)	(1,1)	(-49,30)	(-13,77)	(-38,25)	
L2C 52>	(-7,52)	(-1,95)	(-18,64)	(-2,94)	(-3,130)	(-16,48)	(-14,21)	(-29,32)	(-5,92)	(-10,38)	(-6,39)	(-4,29)	(-13,91)	(2,1)	(-12,16)	(-9,27)	
L2C 53>	(-4,42)	(-13,45)	(-5,82)	(-8,73)	(-19,48)	(-14,63)	(-6,116)	(-27,43)	(-11,54)	(-3,139)	(-18,43)	(-9,42)	(-52,1)	(-29,40)	(-1,193)	(-21,56)	
L2C 54>	(-2,178)	(-13,60)	(-54,172)	(-7,66)	(-3,77)	(1,1)	(-12,31)	(0,141)	(-31,72)	(-10,96)	(-11,52)	(-4,85)	(-5,169)	(-15,134)	(-8,180)	(-30,63)	
L2C 55>	(-41,1)	(-8,59)	(-5,53)	(-2,43)	(-1,134)	(-7,25)	(-9,42)	(-11,55)	(-6,52)	(-13,40)	(-32,41)	(-18,28)	(-16,63)	(-3,155)	(-10,55)	(-15,32)	
L2C 56>	(-9,158)	(-15,46)	(-17,69)	(-30,78)	(-7,74)	(-13,99)	(-3,200)	(-6,1)	(-35,43)	(4,25)	(-18,35)	(-12,65)	(-4,204)	(-5,164)	(-20,23)	(-1,249)	
L2C 57>	(-3,189)	(-5,216)	(-52,1)	(-18,75)	(-7,91)	(-11,53)	(-23,35)	(-2,177)	(-10,126)	(-8,107)	(-9,57)	(-6,95)	(-4,71)	(-28,42)	(-12,45)	(-1,160)	
L2C 58>	(-38,1)	(-11,67)	(-27,29)	(-3,171)	(-8,94)	(-5,105)	(-10,50)	(-13,62)	(-4,15)	(2,48)	(-14,60)	(-2,57)	(-1,224)	(-9,32)	(-6,105)	(0,128)	
L2C 59>	(-8,64)	(-3,54)	(-10,61)	(-7,65)	(-2,181)	(-26,56)	(-59,103)	(-4,105)	(-12,65)	(-1,4)	(-5,95)	(-20,40)	(1,56)	(0,24)	(-15,74)	(-25,35)	
L2C 60>	(-16,1)	(-12,7)	(-6,32)	(-10,18)	(-2,65)	(-4,26)	(-7,29)	(2,32)	(-1,144)	(-11,20)	(-3,102)	(-15,7)	(-13,41)	(-9,6)	(-5,58)	(-8,47)	
L2C 61>	(-8,20)	(-11,15)	(-2,60)	(-6,46)	(-3,54)	(-24,12)	(-13,17)	(-14,17)	(-4,37)	(-61,35)	(0,35)	(-5,55)	(-1,147)	(-9,23)	(-7,12)	(-60,1)	
L2C 62>	(-8,30)	(-5,99)	(-18,23)	(-1,143)	(-10,79)	(-2,178)	(-13,25)	(-9,13)	(-17,1)	(-7,35)	(-25,42)	(-3,84)	(0,27)	(-4,40)	(-16,13)	(-6,15)	
L2C 63>	(-50,5)	(-48,8)	(-36,2)	(-8,1)	(-31,1)	(-60,4)	(-10,1)	(-62,4)	(-2,3)	(-26,3)	(-52,1)	(-12,1)	(0,1)	(-1,202)	(-61,2)	(-17,1)	
Channel_0_RQ_row_buffer_hit 2021482
Channel_0_RQ_row_buffer_miss 26087018
Channel_0_WQ_row_buffer_hit 2620521
Channel_0_WQ_row_buffer_miss 21826500
Channel_0_WQ_full 70177
Channel_0_dbus_congested 32226502

avg_congested_cycle 11
