*************************************************
   ChampSim Multicore Out-of-Order Simulator
   Last compiled: Jan 16 2021 09:49:44
*************************************************

trace_0 traces/627.cam4_s-573B.champsimtrace.xz
CPU 0 L2C Markov prefetcher
Initialize SHIP state
warmup_instructions 100000000
simulation_instructions 500000000
champsim_seed 225

num_cpus 1
cpu_freq 4000
dram_io_freq 2400
page_size 4096
block_size 64
max_read_per_cycle 8
max_fill_per_cycle 1
dram_channels 1
dram_ranks 1
dram_banks 8
dram_rows 65536
dram_columns 128
dram_row_size 8
dram_size 4096
dram_pages 1048576

fetch_width 6
decode_width 6
exec_width 4
lq_width 2
sq_width 2
retire_width 4
scheduler_size 128
branch_mispredict_penalty 20
rob_size 256
lq_size 72
sq_size 56
num_instr_destinations_sparc 4
num_instr_destinations 2
num_instr_sources 4

itlb_set 16
itlb_way 8
itlb_rq_size 16
itlb_wq_size 16
itlb_pq_size 0
itlb_mshr_size 8
itlb_latency 1

dtlb_set 16
dtlb_way 4
dtlb_rq_size 16
dtlb_wq_size 16
dtlb_pq_size 0
dtlb_mshr_size 8
dtlb_latency 1

stlb_set 128
stlb_way 12
stlb_rq_size 32
stlb_wq_size 32
stlb_pq_size 0
stlb_mshr_size 16
stlb_latency 8

l1i_size 32
l1i_set 64
l1i_way 8
l1i_rq_size 64
l1i_wq_size 64
l1i_pq_size 8
l1i_mshr_size 8
l1i_latency 1

l1d_size 32
l1d_set 64
l1d_way 8
l1d_rq_size 64
l1d_wq_size 64
l1d_pq_size 8
l1d_mshr_size 16
l1d_latency 4

l2c_size 512
l2c_set 1024
l2c_way 8
l2c_rq_size 32
l2c_wq_size 32
l2c_pq_size 16
l2c_mshr_size 32
l2c_latency 10

llc_size 2048
llc_set 2048
llc_way 16
llc_rq_size 32
llc_wq_size 32
llc_pq_size 32
llc_mshr_size 64
llc_latency 20

dram_channel_width 8
dram_wq_size 64
dram_rq_size 64
tRP 15
tRCD 15
tCAS 12.5
dram_dbus_turn_around_time 30
dram_write_high_wm 56
dram_write_low_wm 48
min_dram_writes_per_switch 16
dram_mtps 2400
dram_dbus_return_time 13


Heartbeat CPU  0 instructions:    1000003 cycles:     291872 heartbeat IPC: 3.42617 cumulative IPC: 3.42617 (Simulation time: 0 hr 0 min 1 sec) 
Heartbeat CPU  0 instructions:    2000002 cycles:     661857 heartbeat IPC: 2.70281 cumulative IPC: 3.02180 (Simulation time: 0 hr 0 min 2 sec) 
Heartbeat CPU  0 instructions:    3000001 cycles:    1154096 heartbeat IPC: 2.03153 cumulative IPC: 2.59944 (Simulation time: 0 hr 0 min 3 sec) 
 pf_cl: 2452704944699 ip: 6499714 cache_hit: 1 type: 0
 pf_cl: 2452704944699 ip: 6499714 cache_hit: 1 type: 0
 pf_cl: 2452704944699 ip: 6499714 cache_hit: 1 type: 0
 pf_cl: 2452704944699 ip: 6499714 cache_hit: 1 type: 0
 pf_cl: 2452704944699 ip: 6499714 cache_hit: 1 type: 0
 pf_cl: 2452704944699 ip: 6499714 cache_hit: 1 type: 0
 pf_cl: 2452704944699 ip: 6499714 cache_hit: 1 type: 0
 pf_cl: 2452704944699 ip: 6499714 cache_hit: 1 type: 0
Heartbeat CPU  0 instructions:    4000000 cycles:    1489264 heartbeat IPC: 2.98358 cumulative IPC: 2.68589 (Simulation time: 0 hr 0 min 5 sec) 
Heartbeat CPU  0 instructions:    5000003 cycles:    1868673 heartbeat IPC: 2.63569 cumulative IPC: 2.67570 (Simulation time: 0 hr 0 min 6 sec) 
Heartbeat CPU  0 instructions:    6000000 cycles:    2312332 heartbeat IPC: 2.25398 cumulative IPC: 2.59478 (Simulation time: 0 hr 0 min 8 sec) 
Heartbeat CPU  0 instructions:    7000000 cycles:    2754431 heartbeat IPC: 2.26194 cumulative IPC: 2.54136 (Simulation time: 0 hr 0 min 10 sec) 
Heartbeat CPU  0 instructions:    8000000 cycles:    3213910 heartbeat IPC: 2.17638 cumulative IPC: 2.48918 (Simulation time: 0 hr 0 min 12 sec) 
Heartbeat CPU  0 instructions:    9000003 cycles:    3662287 heartbeat IPC: 2.23027 cumulative IPC: 2.45748 (Simulation time: 0 hr 0 min 14 sec) 
Heartbeat CPU  0 instructions:   10000003 cycles:    4123555 heartbeat IPC: 2.16794 cumulative IPC: 2.42509 (Simulation time: 0 hr 0 min 16 sec) 
Heartbeat CPU  0 instructions:   11000002 cycles:    4537712 heartbeat IPC: 2.41454 cumulative IPC: 2.42413 (Simulation time: 0 hr 0 min 17 sec) 
Heartbeat CPU  0 instructions:   12000000 cycles:    4945079 heartbeat IPC: 2.45478 cumulative IPC: 2.42665 (Simulation time: 0 hr 0 min 19 sec) 
Heartbeat CPU  0 instructions:   13000000 cycles:    5333858 heartbeat IPC: 2.57216 cumulative IPC: 2.43726 (Simulation time: 0 hr 0 min 21 sec) 
Heartbeat CPU  0 instructions:   14000001 cycles:    5729645 heartbeat IPC: 2.52661 cumulative IPC: 2.44343 (Simulation time: 0 hr 0 min 23 sec) 
Heartbeat CPU  0 instructions:   15000000 cycles:    6123611 heartbeat IPC: 2.53829 cumulative IPC: 2.44954 (Simulation time: 0 hr 0 min 24 sec) 
Heartbeat CPU  0 instructions:   16000000 cycles:    6512806 heartbeat IPC: 2.56941 cumulative IPC: 2.45670 (Simulation time: 0 hr 0 min 26 sec) 
Heartbeat CPU  0 instructions:   17000001 cycles:    6922689 heartbeat IPC: 2.43972 cumulative IPC: 2.45569 (Simulation time: 0 hr 0 min 28 sec) 
Heartbeat CPU  0 instructions:   18000003 cycles:    7357385 heartbeat IPC: 2.30046 cumulative IPC: 2.44652 (Simulation time: 0 hr 0 min 30 sec) 
Heartbeat CPU  0 instructions:   19000003 cycles:    7764716 heartbeat IPC: 2.45501 cumulative IPC: 2.44697 (Simulation time: 0 hr 0 min 31 sec) 
Heartbeat CPU  0 instructions:   20000000 cycles:    8159247 heartbeat IPC: 2.53465 cumulative IPC: 2.45121 (Simulation time: 0 hr 0 min 33 sec) 
Heartbeat CPU  0 instructions:   21000002 cycles:    8559652 heartbeat IPC: 2.49748 cumulative IPC: 2.45337 (Simulation time: 0 hr 0 min 35 sec) 
Heartbeat CPU  0 instructions:   22000000 cycles:    8963118 heartbeat IPC: 2.47852 cumulative IPC: 2.45450 (Simulation time: 0 hr 0 min 37 sec) 
Heartbeat CPU  0 instructions:   23000003 cycles:    9385447 heartbeat IPC: 2.36783 cumulative IPC: 2.45060 (Simulation time: 0 hr 0 min 39 sec) 
Heartbeat CPU  0 instructions:   24000000 cycles:    9783063 heartbeat IPC: 2.51498 cumulative IPC: 2.45322 (Simulation time: 0 hr 0 min 40 sec) 
Heartbeat CPU  0 instructions:   25000000 cycles:   10169683 heartbeat IPC: 2.58652 cumulative IPC: 2.45829 (Simulation time: 0 hr 0 min 42 sec) 
Heartbeat CPU  0 instructions:   26000002 cycles:   10554925 heartbeat IPC: 2.59578 cumulative IPC: 2.46331 (Simulation time: 0 hr 0 min 44 sec) 
Heartbeat CPU  0 instructions:   27000002 cycles:   10946753 heartbeat IPC: 2.55214 cumulative IPC: 2.46649 (Simulation time: 0 hr 0 min 45 sec) 
Heartbeat CPU  0 instructions:   28000000 cycles:   11372926 heartbeat IPC: 2.34646 cumulative IPC: 2.46199 (Simulation time: 0 hr 0 min 47 sec) 
Heartbeat CPU  0 instructions:   29000000 cycles:   11760906 heartbeat IPC: 2.57745 cumulative IPC: 2.46580 (Simulation time: 0 hr 0 min 49 sec) 
Heartbeat CPU  0 instructions:   30000002 cycles:   12161250 heartbeat IPC: 2.49786 cumulative IPC: 2.46685 (Simulation time: 0 hr 0 min 51 sec) 
Heartbeat CPU  0 instructions:   31000001 cycles:   12553198 heartbeat IPC: 2.55136 cumulative IPC: 2.46949 (Simulation time: 0 hr 0 min 53 sec) 
Heartbeat CPU  0 instructions:   32000000 cycles:   12938676 heartbeat IPC: 2.59418 cumulative IPC: 2.47321 (Simulation time: 0 hr 0 min 54 sec) 
Heartbeat CPU  0 instructions:   33000003 cycles:   13330035 heartbeat IPC: 2.55521 cumulative IPC: 2.47561 (Simulation time: 0 hr 0 min 56 sec) 
Heartbeat CPU  0 instructions:   34000000 cycles:   13720472 heartbeat IPC: 2.56122 cumulative IPC: 2.47805 (Simulation time: 0 hr 0 min 58 sec) 
Heartbeat CPU  0 instructions:   35000000 cycles:   14108290 heartbeat IPC: 2.57853 cumulative IPC: 2.48081 (Simulation time: 0 hr 1 min 0 sec) 
Heartbeat CPU  0 instructions:   36000000 cycles:   14493261 heartbeat IPC: 2.59760 cumulative IPC: 2.48391 (Simulation time: 0 hr 1 min 1 sec) 
Heartbeat CPU  0 instructions:   37000000 cycles:   14877379 heartbeat IPC: 2.60337 cumulative IPC: 2.48700 (Simulation time: 0 hr 1 min 3 sec) 
Heartbeat CPU  0 instructions:   38000002 cycles:   15257927 heartbeat IPC: 2.62779 cumulative IPC: 2.49051 (Simulation time: 0 hr 1 min 5 sec) 
Heartbeat CPU  0 instructions:   39000002 cycles:   15641750 heartbeat IPC: 2.60537 cumulative IPC: 2.49333 (Simulation time: 0 hr 1 min 6 sec) 
Heartbeat CPU  0 instructions:   40000000 cycles:   16131365 heartbeat IPC: 2.04242 cumulative IPC: 2.47964 (Simulation time: 0 hr 1 min 8 sec) 
Heartbeat CPU  0 instructions:   41000001 cycles:   16567401 heartbeat IPC: 2.29339 cumulative IPC: 2.47474 (Simulation time: 0 hr 1 min 9 sec) 
Heartbeat CPU  0 instructions:   42000000 cycles:   16995665 heartbeat IPC: 2.33501 cumulative IPC: 2.47122 (Simulation time: 0 hr 1 min 11 sec) 
Heartbeat CPU  0 instructions:   43000001 cycles:   17465254 heartbeat IPC: 2.12952 cumulative IPC: 2.46203 (Simulation time: 0 hr 1 min 12 sec) 
Heartbeat CPU  0 instructions:   44000000 cycles:   17970649 heartbeat IPC: 1.97865 cumulative IPC: 2.44844 (Simulation time: 0 hr 1 min 13 sec) 
Heartbeat CPU  0 instructions:   45000001 cycles:   18473367 heartbeat IPC: 1.98919 cumulative IPC: 2.43594 (Simulation time: 0 hr 1 min 15 sec) 
Heartbeat CPU  0 instructions:   46000000 cycles:   18975236 heartbeat IPC: 1.99255 cumulative IPC: 2.42421 (Simulation time: 0 hr 1 min 16 sec) 
Heartbeat CPU  0 instructions:   47000000 cycles:   19477156 heartbeat IPC: 1.99235 cumulative IPC: 2.41308 (Simulation time: 0 hr 1 min 18 sec) 
Heartbeat CPU  0 instructions:   48000000 cycles:   19979461 heartbeat IPC: 1.99082 cumulative IPC: 2.40247 (Simulation time: 0 hr 1 min 19 sec) 
Heartbeat CPU  0 instructions:   49000000 cycles:   20479126 heartbeat IPC: 2.00134 cumulative IPC: 2.39268 (Simulation time: 0 hr 1 min 20 sec) 
Heartbeat CPU  0 instructions:   50000001 cycles:   20979730 heartbeat IPC: 1.99759 cumulative IPC: 2.38325 (Simulation time: 0 hr 1 min 22 sec) 
Heartbeat CPU  0 instructions:   51000002 cycles:   21476966 heartbeat IPC: 2.01112 cumulative IPC: 2.37464 (Simulation time: 0 hr 1 min 23 sec) 
Heartbeat CPU  0 instructions:   52000000 cycles:   21974046 heartbeat IPC: 2.01174 cumulative IPC: 2.36643 (Simulation time: 0 hr 1 min 24 sec) 
Heartbeat CPU  0 instructions:   53000001 cycles:   22471831 heartbeat IPC: 2.00890 cumulative IPC: 2.35851 (Simulation time: 0 hr 1 min 26 sec) 
Heartbeat CPU  0 instructions:   54000001 cycles:   22967819 heartbeat IPC: 2.01618 cumulative IPC: 2.35112 (Simulation time: 0 hr 1 min 27 sec) 
Heartbeat CPU  0 instructions:   55000003 cycles:   23463961 heartbeat IPC: 2.01556 cumulative IPC: 2.34402 (Simulation time: 0 hr 1 min 28 sec) 
Heartbeat CPU  0 instructions:   56000000 cycles:   23960892 heartbeat IPC: 2.01235 cumulative IPC: 2.33714 (Simulation time: 0 hr 1 min 30 sec) 
Heartbeat CPU  0 instructions:   57000003 cycles:   24458658 heartbeat IPC: 2.00898 cumulative IPC: 2.33046 (Simulation time: 0 hr 1 min 31 sec) 
Heartbeat CPU  0 instructions:   58000001 cycles:   24953957 heartbeat IPC: 2.01898 cumulative IPC: 2.32428 (Simulation time: 0 hr 1 min 32 sec) 
Heartbeat CPU  0 instructions:   59000003 cycles:   25454029 heartbeat IPC: 1.99972 cumulative IPC: 2.31790 (Simulation time: 0 hr 1 min 34 sec) 
Heartbeat CPU  0 instructions:   60000000 cycles:   25955310 heartbeat IPC: 1.99488 cumulative IPC: 2.31167 (Simulation time: 0 hr 1 min 35 sec) 
Heartbeat CPU  0 instructions:   61000003 cycles:   26453374 heartbeat IPC: 2.00778 cumulative IPC: 2.30594 (Simulation time: 0 hr 1 min 36 sec) 
Heartbeat CPU  0 instructions:   62000001 cycles:   26948036 heartbeat IPC: 2.02158 cumulative IPC: 2.30072 (Simulation time: 0 hr 1 min 37 sec) 
Heartbeat CPU  0 instructions:   63000002 cycles:   27445046 heartbeat IPC: 2.01203 cumulative IPC: 2.29550 (Simulation time: 0 hr 1 min 39 sec) 
Heartbeat CPU  0 instructions:   64000000 cycles:   27939382 heartbeat IPC: 2.02291 cumulative IPC: 2.29067 (Simulation time: 0 hr 1 min 40 sec) 
Heartbeat CPU  0 instructions:   65000000 cycles:   28439151 heartbeat IPC: 2.00092 cumulative IPC: 2.28558 (Simulation time: 0 hr 1 min 41 sec) 
Heartbeat CPU  0 instructions:   66000003 cycles:   28967649 heartbeat IPC: 1.89216 cumulative IPC: 2.27840 (Simulation time: 0 hr 1 min 42 sec) 
Heartbeat CPU  0 instructions:   67000003 cycles:   29387730 heartbeat IPC: 2.38049 cumulative IPC: 2.27986 (Simulation time: 0 hr 1 min 44 sec) 
Heartbeat CPU  0 instructions:   68000000 cycles:   29786365 heartbeat IPC: 2.50855 cumulative IPC: 2.28292 (Simulation time: 0 hr 1 min 45 sec) 
Heartbeat CPU  0 instructions:   69000000 cycles:   30184053 heartbeat IPC: 2.51453 cumulative IPC: 2.28598 (Simulation time: 0 hr 1 min 47 sec) 
Heartbeat CPU  0 instructions:   70000000 cycles:   30574629 heartbeat IPC: 2.56032 cumulative IPC: 2.28948 (Simulation time: 0 hr 1 min 48 sec) 
Heartbeat CPU  0 instructions:   71000003 cycles:   30962573 heartbeat IPC: 2.57770 cumulative IPC: 2.29309 (Simulation time: 0 hr 1 min 49 sec) 
Heartbeat CPU  0 instructions:   72000000 cycles:   31351995 heartbeat IPC: 2.56790 cumulative IPC: 2.29650 (Simulation time: 0 hr 1 min 51 sec) 
Heartbeat CPU  0 instructions:   73000003 cycles:   31741858 heartbeat IPC: 2.56501 cumulative IPC: 2.29980 (Simulation time: 0 hr 1 min 52 sec) 
Heartbeat CPU  0 instructions:   74000000 cycles:   32166219 heartbeat IPC: 2.35648 cumulative IPC: 2.30055 (Simulation time: 0 hr 1 min 54 sec) 
Heartbeat CPU  0 instructions:   75000003 cycles:   32780963 heartbeat IPC: 1.62670 cumulative IPC: 2.28791 (Simulation time: 0 hr 1 min 55 sec) 
Heartbeat CPU  0 instructions:   76000000 cycles:   33305604 heartbeat IPC: 1.90606 cumulative IPC: 2.28190 (Simulation time: 0 hr 1 min 56 sec) 
Heartbeat CPU  0 instructions:   77000001 cycles:   33747429 heartbeat IPC: 2.26334 cumulative IPC: 2.28166 (Simulation time: 0 hr 1 min 57 sec) 
Heartbeat CPU  0 instructions:   78000002 cycles:   34151456 heartbeat IPC: 2.47508 cumulative IPC: 2.28394 (Simulation time: 0 hr 1 min 59 sec) 
Heartbeat CPU  0 instructions:   79000001 cycles:   34707053 heartbeat IPC: 1.79986 cumulative IPC: 2.27619 (Simulation time: 0 hr 2 min 0 sec) 
Heartbeat CPU  0 instructions:   80000000 cycles:   35204196 heartbeat IPC: 2.01149 cumulative IPC: 2.27246 (Simulation time: 0 hr 2 min 2 sec) 
Heartbeat CPU  0 instructions:   81000002 cycles:   35729417 heartbeat IPC: 1.90396 cumulative IPC: 2.26704 (Simulation time: 0 hr 2 min 3 sec) 
Heartbeat CPU  0 instructions:   82000003 cycles:   36240830 heartbeat IPC: 1.95537 cumulative IPC: 2.26264 (Simulation time: 0 hr 2 min 5 sec) 
Heartbeat CPU  0 instructions:   83000000 cycles:   36720724 heartbeat IPC: 2.08379 cumulative IPC: 2.26030 (Simulation time: 0 hr 2 min 6 sec) 
Heartbeat CPU  0 instructions:   84000000 cycles:   37184596 heartbeat IPC: 2.15577 cumulative IPC: 2.25900 (Simulation time: 0 hr 2 min 7 sec) 
Heartbeat CPU  0 instructions:   85000000 cycles:   37649720 heartbeat IPC: 2.14996 cumulative IPC: 2.25765 (Simulation time: 0 hr 2 min 8 sec) 
Heartbeat CPU  0 instructions:   86000001 cycles:   38165518 heartbeat IPC: 1.93875 cumulative IPC: 2.25334 (Simulation time: 0 hr 2 min 9 sec) 
Heartbeat CPU  0 instructions:   87000001 cycles:   38612625 heartbeat IPC: 2.23660 cumulative IPC: 2.25315 (Simulation time: 0 hr 2 min 10 sec) 
Heartbeat CPU  0 instructions:   88000000 cycles:   39060979 heartbeat IPC: 2.23038 cumulative IPC: 2.25289 (Simulation time: 0 hr 2 min 11 sec) 
Heartbeat CPU  0 instructions:   89000000 cycles:   39511279 heartbeat IPC: 2.22074 cumulative IPC: 2.25252 (Simulation time: 0 hr 2 min 12 sec) 
Heartbeat CPU  0 instructions:   90000001 cycles:   39874729 heartbeat IPC: 2.75141 cumulative IPC: 2.25707 (Simulation time: 0 hr 2 min 13 sec) 
Heartbeat CPU  0 instructions:   91000001 cycles:   40362585 heartbeat IPC: 2.04979 cumulative IPC: 2.25456 (Simulation time: 0 hr 2 min 15 sec) 
Heartbeat CPU  0 instructions:   92000000 cycles:   40862842 heartbeat IPC: 1.99897 cumulative IPC: 2.25143 (Simulation time: 0 hr 2 min 16 sec) 
Heartbeat CPU  0 instructions:   93000000 cycles:   41403620 heartbeat IPC: 1.84919 cumulative IPC: 2.24618 (Simulation time: 0 hr 2 min 17 sec) 
Heartbeat CPU  0 instructions:   94000001 cycles:   42018708 heartbeat IPC: 1.62579 cumulative IPC: 2.23710 (Simulation time: 0 hr 2 min 19 sec) 
Heartbeat CPU  0 instructions:   95000003 cycles:   42637730 heartbeat IPC: 1.61545 cumulative IPC: 2.22807 (Simulation time: 0 hr 2 min 21 sec) 
Heartbeat CPU  0 instructions:   96000000 cycles:   43116712 heartbeat IPC: 2.08775 cumulative IPC: 2.22651 (Simulation time: 0 hr 2 min 22 sec) 
Heartbeat CPU  0 instructions:   97000003 cycles:   43444580 heartbeat IPC: 3.05002 cumulative IPC: 2.23273 (Simulation time: 0 hr 2 min 23 sec) 
Heartbeat CPU  0 instructions:   98000003 cycles:   43886426 heartbeat IPC: 2.26323 cumulative IPC: 2.23304 (Simulation time: 0 hr 2 min 25 sec) 
Heartbeat CPU  0 instructions:   99000002 cycles:   44355212 heartbeat IPC: 2.13317 cumulative IPC: 2.23198 (Simulation time: 0 hr 2 min 27 sec) 
Heartbeat CPU  0 instructions:  100000000 cycles:   44953645 heartbeat IPC: 1.67103 cumulative IPC: 2.22451 (Simulation time: 0 hr 2 min 29 sec) 

Warmup complete CPU  0 instructions:  100000004 cycles:   44953674 (Simulation time: 0 hr 2 min 29 sec) 

Heartbeat CPU  0 instructions:  101000000 cycles:   52708692 heartbeat IPC: 0.12895 cumulative IPC: 0.12895 (Simulation time: 0 hr 2 min 38 sec) 
Heartbeat CPU  0 instructions:  102000003 cycles:   60270249 heartbeat IPC: 0.13225 cumulative IPC: 0.13058 (Simulation time: 0 hr 2 min 46 sec) 
Heartbeat CPU  0 instructions:  103000003 cycles:   63703541 heartbeat IPC: 0.29127 cumulative IPC: 0.16000 (Simulation time: 0 hr 2 min 50 sec) 
Heartbeat CPU  0 instructions:  104000000 cycles:   66948623 heartbeat IPC: 0.30816 cumulative IPC: 0.18186 (Simulation time: 0 hr 2 min 54 sec) 
Heartbeat CPU  0 instructions:  105000000 cycles:   69123813 heartbeat IPC: 0.45973 cumulative IPC: 0.20687 (Simulation time: 0 hr 2 min 58 sec) 
 pf_cl: 2452704944699 ip: 6499714 cache_hit: 1 type: 0
 pf_cl: 2452704944699 ip: 6499714 cache_hit: 1 type: 0
 pf_cl: 2452704944699 ip: 6499714 cache_hit: 1 type: 0
 pf_cl: 2452704944699 ip: 6499714 cache_hit: 1 type: 0
 pf_cl: 2452704944699 ip: 6499714 cache_hit: 1 type: 0
 pf_cl: 2452704944699 ip: 6499714 cache_hit: 1 type: 0
 pf_cl: 2452704944699 ip: 6499714 cache_hit: 1 type: 0
 pf_cl: 2452704944699 ip: 6499714 cache_hit: 1 type: 0
Heartbeat CPU  0 instructions:  106000000 cycles:   70511076 heartbeat IPC: 0.72084 cumulative IPC: 0.23477 (Simulation time: 0 hr 3 min 0 sec) 
Heartbeat CPU  0 instructions:  107000001 cycles:   71376878 heartbeat IPC: 1.15500 cumulative IPC: 0.26492 (Simulation time: 0 hr 3 min 2 sec) 
Heartbeat CPU  0 instructions:  108000000 cycles:   72398274 heartbeat IPC: 0.97905 cumulative IPC: 0.29150 (Simulation time: 0 hr 3 min 5 sec) 
Heartbeat CPU  0 instructions:  109000000 cycles:   73708520 heartbeat IPC: 0.76322 cumulative IPC: 0.31299 (Simulation time: 0 hr 3 min 7 sec) 
Heartbeat CPU  0 instructions:  110000000 cycles:   74998237 heartbeat IPC: 0.77536 cumulative IPC: 0.33284 (Simulation time: 0 hr 3 min 10 sec) 
Heartbeat CPU  0 instructions:  111000003 cycles:   76325650 heartbeat IPC: 0.75335 cumulative IPC: 0.35063 (Simulation time: 0 hr 3 min 13 sec) 
Heartbeat CPU  0 instructions:  112000000 cycles:   77792909 heartbeat IPC: 0.68154 cumulative IPC: 0.36542 (Simulation time: 0 hr 3 min 16 sec) 
Heartbeat CPU  0 instructions:  113000003 cycles:   78792042 heartbeat IPC: 1.00087 cumulative IPC: 0.38418 (Simulation time: 0 hr 3 min 18 sec) 
Heartbeat CPU  0 instructions:  114000000 cycles:   79846857 heartbeat IPC: 0.94803 cumulative IPC: 0.40122 (Simulation time: 0 hr 3 min 21 sec) 
Heartbeat CPU  0 instructions:  115000000 cycles:   80808765 heartbeat IPC: 1.03960 cumulative IPC: 0.41835 (Simulation time: 0 hr 3 min 23 sec) 
Heartbeat CPU  0 instructions:  116000000 cycles:   81741915 heartbeat IPC: 1.07164 cumulative IPC: 0.43492 (Simulation time: 0 hr 3 min 26 sec) 
Heartbeat CPU  0 instructions:  117000003 cycles:   82735025 heartbeat IPC: 1.00694 cumulative IPC: 0.44996 (Simulation time: 0 hr 3 min 28 sec) 
Heartbeat CPU  0 instructions:  118000002 cycles:   83684246 heartbeat IPC: 1.05349 cumulative IPC: 0.46475 (Simulation time: 0 hr 3 min 30 sec) 
Heartbeat CPU  0 instructions:  119000000 cycles:   84631250 heartbeat IPC: 1.05596 cumulative IPC: 0.47886 (Simulation time: 0 hr 3 min 33 sec) 
Heartbeat CPU  0 instructions:  120000000 cycles:   85878303 heartbeat IPC: 0.80189 cumulative IPC: 0.48870 (Simulation time: 0 hr 3 min 36 sec) 
Heartbeat CPU  0 instructions:  121000000 cycles:   86834761 heartbeat IPC: 1.04552 cumulative IPC: 0.50142 (Simulation time: 0 hr 3 min 38 sec) 
Heartbeat CPU  0 instructions:  122000000 cycles:   87824894 heartbeat IPC: 1.00997 cumulative IPC: 0.51316 (Simulation time: 0 hr 3 min 41 sec) 
Heartbeat CPU  0 instructions:  123000000 cycles:   88758326 heartbeat IPC: 1.07132 cumulative IPC: 0.52506 (Simulation time: 0 hr 3 min 43 sec) 
Heartbeat CPU  0 instructions:  124000000 cycles:   89746615 heartbeat IPC: 1.01185 cumulative IPC: 0.53580 (Simulation time: 0 hr 3 min 45 sec) 
Heartbeat CPU  0 instructions:  125000001 cycles:   90761601 heartbeat IPC: 0.98524 cumulative IPC: 0.54576 (Simulation time: 0 hr 3 min 48 sec) 
Heartbeat CPU  0 instructions:  126000002 cycles:   91884367 heartbeat IPC: 0.89066 cumulative IPC: 0.55401 (Simulation time: 0 hr 3 min 51 sec) 
Heartbeat CPU  0 instructions:  127000003 cycles:   92851874 heartbeat IPC: 1.03359 cumulative IPC: 0.56370 (Simulation time: 0 hr 3 min 53 sec) 
Heartbeat CPU  0 instructions:  128000000 cycles:   93788451 heartbeat IPC: 1.06771 cumulative IPC: 0.57336 (Simulation time: 0 hr 3 min 56 sec) 
Heartbeat CPU  0 instructions:  129000001 cycles:   94685072 heartbeat IPC: 1.11530 cumulative IPC: 0.58313 (Simulation time: 0 hr 3 min 58 sec) 
Heartbeat CPU  0 instructions:  130000000 cycles:   95518353 heartbeat IPC: 1.20007 cumulative IPC: 0.59330 (Simulation time: 0 hr 4 min 0 sec) 
Heartbeat CPU  0 instructions:  131000000 cycles:   96612034 heartbeat IPC: 0.91434 cumulative IPC: 0.60010 (Simulation time: 0 hr 4 min 3 sec) 
Heartbeat CPU  0 instructions:  132000000 cycles:   97553196 heartbeat IPC: 1.06252 cumulative IPC: 0.60837 (Simulation time: 0 hr 4 min 5 sec) 
Heartbeat CPU  0 instructions:  133000002 cycles:   98572683 heartbeat IPC: 0.98089 cumulative IPC: 0.61545 (Simulation time: 0 hr 4 min 8 sec) 
Heartbeat CPU  0 instructions:  134000000 cycles:   99502092 heartbeat IPC: 1.07595 cumulative IPC: 0.62330 (Simulation time: 0 hr 4 min 10 sec) 
Heartbeat CPU  0 instructions:  135000000 cycles:  100405992 heartbeat IPC: 1.10632 cumulative IPC: 0.63117 (Simulation time: 0 hr 4 min 13 sec) 
Heartbeat CPU  0 instructions:  136000000 cycles:  101318645 heartbeat IPC: 1.09571 cumulative IPC: 0.63869 (Simulation time: 0 hr 4 min 15 sec) 
Heartbeat CPU  0 instructions:  137000001 cycles:  102285781 heartbeat IPC: 1.03398 cumulative IPC: 0.64536 (Simulation time: 0 hr 4 min 17 sec) 
Heartbeat CPU  0 instructions:  138000003 cycles:  103185597 heartbeat IPC: 1.11134 cumulative IPC: 0.65256 (Simulation time: 0 hr 4 min 20 sec) 
Heartbeat CPU  0 instructions:  139000000 cycles:  104088210 heartbeat IPC: 1.10789 cumulative IPC: 0.65951 (Simulation time: 0 hr 4 min 22 sec) 
Heartbeat CPU  0 instructions:  140000000 cycles:  104995820 heartbeat IPC: 1.10179 cumulative IPC: 0.66620 (Simulation time: 0 hr 4 min 25 sec) 
Heartbeat CPU  0 instructions:  141000000 cycles:  105858257 heartbeat IPC: 1.15951 cumulative IPC: 0.67318 (Simulation time: 0 hr 4 min 27 sec) 
Heartbeat CPU  0 instructions:  142000000 cycles:  106694991 heartbeat IPC: 1.19512 cumulative IPC: 0.68026 (Simulation time: 0 hr 4 min 29 sec) 
Heartbeat CPU  0 instructions:  143000000 cycles:  107879795 heartbeat IPC: 0.84402 cumulative IPC: 0.68334 (Simulation time: 0 hr 4 min 31 sec) 
Heartbeat CPU  0 instructions:  144000000 cycles:  109182328 heartbeat IPC: 0.76773 cumulative IPC: 0.68505 (Simulation time: 0 hr 4 min 34 sec) 
Heartbeat CPU  0 instructions:  145000000 cycles:  110352342 heartbeat IPC: 0.85469 cumulative IPC: 0.68809 (Simulation time: 0 hr 4 min 36 sec) 
Heartbeat CPU  0 instructions:  146000000 cycles:  111487488 heartbeat IPC: 0.88094 cumulative IPC: 0.69138 (Simulation time: 0 hr 4 min 38 sec) 
Heartbeat CPU  0 instructions:  147000000 cycles:  112766975 heartbeat IPC: 0.78156 cumulative IPC: 0.69308 (Simulation time: 0 hr 4 min 40 sec) 
Heartbeat CPU  0 instructions:  148000000 cycles:  114038960 heartbeat IPC: 0.78617 cumulative IPC: 0.69479 (Simulation time: 0 hr 4 min 43 sec) 
Heartbeat CPU  0 instructions:  149000001 cycles:  115276421 heartbeat IPC: 0.80811 cumulative IPC: 0.69679 (Simulation time: 0 hr 4 min 45 sec) 
Heartbeat CPU  0 instructions:  150000002 cycles:  116551737 heartbeat IPC: 0.78412 cumulative IPC: 0.69834 (Simulation time: 0 hr 4 min 47 sec) 
Heartbeat CPU  0 instructions:  151000001 cycles:  117866596 heartbeat IPC: 0.76054 cumulative IPC: 0.69946 (Simulation time: 0 hr 4 min 50 sec) 
Heartbeat CPU  0 instructions:  152000000 cycles:  119002869 heartbeat IPC: 0.88007 cumulative IPC: 0.70224 (Simulation time: 0 hr 4 min 52 sec) 
Heartbeat CPU  0 instructions:  153000003 cycles:  120276308 heartbeat IPC: 0.78528 cumulative IPC: 0.70364 (Simulation time: 0 hr 4 min 54 sec) 
Heartbeat CPU  0 instructions:  154000002 cycles:  121554551 heartbeat IPC: 0.78232 cumulative IPC: 0.70495 (Simulation time: 0 hr 4 min 56 sec) 
Heartbeat CPU  0 instructions:  155000003 cycles:  122836317 heartbeat IPC: 0.78017 cumulative IPC: 0.70619 (Simulation time: 0 hr 4 min 59 sec) 
Heartbeat CPU  0 instructions:  156000000 cycles:  124096661 heartbeat IPC: 0.79343 cumulative IPC: 0.70758 (Simulation time: 0 hr 5 min 1 sec) 
Heartbeat CPU  0 instructions:  157000002 cycles:  125363422 heartbeat IPC: 0.78942 cumulative IPC: 0.70887 (Simulation time: 0 hr 5 min 3 sec) 
Heartbeat CPU  0 instructions:  158000003 cycles:  126639517 heartbeat IPC: 0.78364 cumulative IPC: 0.71004 (Simulation time: 0 hr 5 min 5 sec) 
Heartbeat CPU  0 instructions:  159000000 cycles:  127917947 heartbeat IPC: 0.78221 cumulative IPC: 0.71115 (Simulation time: 0 hr 5 min 8 sec) 
Heartbeat CPU  0 instructions:  160000000 cycles:  129181540 heartbeat IPC: 0.79139 cumulative IPC: 0.71235 (Simulation time: 0 hr 5 min 10 sec) 
Heartbeat CPU  0 instructions:  161000001 cycles:  130367362 heartbeat IPC: 0.84330 cumulative IPC: 0.71417 (Simulation time: 0 hr 5 min 12 sec) 
Heartbeat CPU  0 instructions:  162000000 cycles:  131632969 heartbeat IPC: 0.79013 cumulative IPC: 0.71528 (Simulation time: 0 hr 5 min 14 sec) 
Heartbeat CPU  0 instructions:  163000000 cycles:  132914380 heartbeat IPC: 0.78039 cumulative IPC: 0.71623 (Simulation time: 0 hr 5 min 17 sec) 
Heartbeat CPU  0 instructions:  164000000 cycles:  134177291 heartbeat IPC: 0.79182 cumulative IPC: 0.71730 (Simulation time: 0 hr 5 min 19 sec) 
Heartbeat CPU  0 instructions:  165000001 cycles:  135446769 heartbeat IPC: 0.78773 cumulative IPC: 0.71829 (Simulation time: 0 hr 5 min 21 sec) 
Heartbeat CPU  0 instructions:  166000001 cycles:  136718411 heartbeat IPC: 0.78638 cumulative IPC: 0.71923 (Simulation time: 0 hr 5 min 24 sec) 
Heartbeat CPU  0 instructions:  167000000 cycles:  137995210 heartbeat IPC: 0.78321 cumulative IPC: 0.72011 (Simulation time: 0 hr 5 min 26 sec) 
Heartbeat CPU  0 instructions:  168000000 cycles:  139251461 heartbeat IPC: 0.79602 cumulative IPC: 0.72112 (Simulation time: 0 hr 5 min 28 sec) 
Heartbeat CPU  0 instructions:  169000003 cycles:  140531255 heartbeat IPC: 0.78138 cumulative IPC: 0.72193 (Simulation time: 0 hr 5 min 30 sec) 
Heartbeat CPU  0 instructions:  170000000 cycles:  141546333 heartbeat IPC: 0.98514 cumulative IPC: 0.72469 (Simulation time: 0 hr 5 min 33 sec) 
Heartbeat CPU  0 instructions:  171000001 cycles:  142564968 heartbeat IPC: 0.98171 cumulative IPC: 0.72737 (Simulation time: 0 hr 5 min 35 sec) 
Heartbeat CPU  0 instructions:  172000000 cycles:  143546166 heartbeat IPC: 1.01916 cumulative IPC: 0.73028 (Simulation time: 0 hr 5 min 38 sec) 
Heartbeat CPU  0 instructions:  173000001 cycles:  144527284 heartbeat IPC: 1.01925 cumulative IPC: 0.73313 (Simulation time: 0 hr 5 min 40 sec) 
Heartbeat CPU  0 instructions:  174000000 cycles:  145521058 heartbeat IPC: 1.00626 cumulative IPC: 0.73583 (Simulation time: 0 hr 5 min 42 sec) 
Heartbeat CPU  0 instructions:  175000000 cycles:  146520987 heartbeat IPC: 1.00007 cumulative IPC: 0.73843 (Simulation time: 0 hr 5 min 45 sec) 
Heartbeat CPU  0 instructions:  176000000 cycles:  147513486 heartbeat IPC: 1.00756 cumulative IPC: 0.74103 (Simulation time: 0 hr 5 min 47 sec) 
Heartbeat CPU  0 instructions:  177000000 cycles:  149081818 heartbeat IPC: 0.63762 cumulative IPC: 0.73947 (Simulation time: 0 hr 5 min 50 sec) 
Heartbeat CPU  0 instructions:  178000000 cycles:  150484574 heartbeat IPC: 0.71288 cumulative IPC: 0.73912 (Simulation time: 0 hr 5 min 52 sec) 
Heartbeat CPU  0 instructions:  179000002 cycles:  151432552 heartbeat IPC: 1.05488 cumulative IPC: 0.74193 (Simulation time: 0 hr 5 min 54 sec) 
Heartbeat CPU  0 instructions:  180000000 cycles:  152598144 heartbeat IPC: 0.85793 cumulative IPC: 0.74319 (Simulation time: 0 hr 5 min 57 sec) 
Heartbeat CPU  0 instructions:  181000000 cycles:  153990970 heartbeat IPC: 0.71796 cumulative IPC: 0.74287 (Simulation time: 0 hr 5 min 59 sec) 
Heartbeat CPU  0 instructions:  182000001 cycles:  155408345 heartbeat IPC: 0.70553 cumulative IPC: 0.74239 (Simulation time: 0 hr 6 min 2 sec) 
Heartbeat CPU  0 instructions:  183000000 cycles:  156772948 heartbeat IPC: 0.73281 cumulative IPC: 0.74227 (Simulation time: 0 hr 6 min 4 sec) 
Heartbeat CPU  0 instructions:  184000000 cycles:  158217880 heartbeat IPC: 0.69207 cumulative IPC: 0.74163 (Simulation time: 0 hr 6 min 6 sec) 
Heartbeat CPU  0 instructions:  185000000 cycles:  159647833 heartbeat IPC: 0.69932 cumulative IPC: 0.74110 (Simulation time: 0 hr 6 min 9 sec) 
Heartbeat CPU  0 instructions:  186000002 cycles:  161094728 heartbeat IPC: 0.69114 cumulative IPC: 0.74048 (Simulation time: 0 hr 6 min 11 sec) 
Heartbeat CPU  0 instructions:  187000001 cycles:  162508375 heartbeat IPC: 0.70739 cumulative IPC: 0.74008 (Simulation time: 0 hr 6 min 13 sec) 
Heartbeat CPU  0 instructions:  188000000 cycles:  163954468 heartbeat IPC: 0.69152 cumulative IPC: 0.73949 (Simulation time: 0 hr 6 min 15 sec) 
Heartbeat CPU  0 instructions:  189000001 cycles:  165306923 heartbeat IPC: 0.73940 cumulative IPC: 0.73949 (Simulation time: 0 hr 6 min 17 sec) 
Heartbeat CPU  0 instructions:  190000003 cycles:  166782822 heartbeat IPC: 0.67755 cumulative IPC: 0.73874 (Simulation time: 0 hr 6 min 20 sec) 
Heartbeat CPU  0 instructions:  191000002 cycles:  168277541 heartbeat IPC: 0.66902 cumulative IPC: 0.73789 (Simulation time: 0 hr 6 min 22 sec) 
Heartbeat CPU  0 instructions:  192000000 cycles:  169279258 heartbeat IPC: 0.99828 cumulative IPC: 0.73999 (Simulation time: 0 hr 6 min 24 sec) 
Heartbeat CPU  0 instructions:  193000000 cycles:  170035721 heartbeat IPC: 1.32194 cumulative IPC: 0.74351 (Simulation time: 0 hr 6 min 26 sec) 
Heartbeat CPU  0 instructions:  194000001 cycles:  170928672 heartbeat IPC: 1.11988 cumulative IPC: 0.74618 (Simulation time: 0 hr 6 min 28 sec) 
Heartbeat CPU  0 instructions:  195000003 cycles:  172444766 heartbeat IPC: 0.65959 cumulative IPC: 0.74515 (Simulation time: 0 hr 6 min 30 sec) 
Heartbeat CPU  0 instructions:  196000000 cycles:  174256910 heartbeat IPC: 0.55183 cumulative IPC: 0.74244 (Simulation time: 0 hr 6 min 33 sec) 
Heartbeat CPU  0 instructions:  197000003 cycles:  175881500 heartbeat IPC: 0.61554 cumulative IPC: 0.74087 (Simulation time: 0 hr 6 min 35 sec) 
Heartbeat CPU  0 instructions:  198000000 cycles:  177786834 heartbeat IPC: 0.52484 cumulative IPC: 0.73777 (Simulation time: 0 hr 6 min 38 sec) 
Heartbeat CPU  0 instructions:  199000002 cycles:  178388863 heartbeat IPC: 1.66105 cumulative IPC: 0.74193 (Simulation time: 0 hr 6 min 39 sec) 
Heartbeat CPU  0 instructions:  200000000 cycles:  179582662 heartbeat IPC: 0.83766 cumulative IPC: 0.74278 (Simulation time: 0 hr 6 min 42 sec) 
Heartbeat CPU  0 instructions:  201000003 cycles:  181173110 heartbeat IPC: 0.62876 cumulative IPC: 0.74145 (Simulation time: 0 hr 6 min 44 sec) 
Heartbeat CPU  0 instructions:  202000000 cycles:  182500020 heartbeat IPC: 0.75363 cumulative IPC: 0.74157 (Simulation time: 0 hr 6 min 47 sec) 
Heartbeat CPU  0 instructions:  203000003 cycles:  187794954 heartbeat IPC: 0.18886 cumulative IPC: 0.72108 (Simulation time: 0 hr 6 min 52 sec) 
Heartbeat CPU  0 instructions:  204000000 cycles:  195875576 heartbeat IPC: 0.12375 cumulative IPC: 0.68910 (Simulation time: 0 hr 7 min 1 sec) 
Heartbeat CPU  0 instructions:  205000003 cycles:  200572574 heartbeat IPC: 0.21290 cumulative IPC: 0.67473 (Simulation time: 0 hr 7 min 6 sec) 
Heartbeat CPU  0 instructions:  206000002 cycles:  204068762 heartbeat IPC: 0.28603 cumulative IPC: 0.66618 (Simulation time: 0 hr 7 min 10 sec) 
Heartbeat CPU  0 instructions:  207000001 cycles:  207612210 heartbeat IPC: 0.28221 cumulative IPC: 0.65782 (Simulation time: 0 hr 7 min 14 sec) 
Heartbeat CPU  0 instructions:  208000000 cycles:  208842650 heartbeat IPC: 0.81272 cumulative IPC: 0.65898 (Simulation time: 0 hr 7 min 16 sec) 
 pf_cl: 2452704944699 ip: 6499714 cache_hit: 1 type: 0
 pf_cl: 2452704944699 ip: 6499714 cache_hit: 1 type: 0
 pf_cl: 2452704944699 ip: 6499714 cache_hit: 1 type: 0
 pf_cl: 2452704944699 ip: 6499714 cache_hit: 1 type: 0
 pf_cl: 2452704944699 ip: 6499714 cache_hit: 1 type: 0
 pf_cl: 2452704944699 ip: 6499714 cache_hit: 1 type: 0
 pf_cl: 2452704944699 ip: 6499714 cache_hit: 1 type: 0
 pf_cl: 2452704944699 ip: 6499714 cache_hit: 1 type: 0
Heartbeat CPU  0 instructions:  209000001 cycles:  209796942 heartbeat IPC: 1.04790 cumulative IPC: 0.66123 (Simulation time: 0 hr 7 min 18 sec) 
Heartbeat CPU  0 instructions:  210000003 cycles:  210552604 heartbeat IPC: 1.32335 cumulative IPC: 0.66426 (Simulation time: 0 hr 7 min 19 sec) 
Heartbeat CPU  0 instructions:  211000003 cycles:  211904515 heartbeat IPC: 0.73969 cumulative IPC: 0.66487 (Simulation time: 0 hr 7 min 22 sec) 
Heartbeat CPU  0 instructions:  212000000 cycles:  213158059 heartbeat IPC: 0.79774 cumulative IPC: 0.66586 (Simulation time: 0 hr 7 min 25 sec) 
Heartbeat CPU  0 instructions:  213000000 cycles:  214502121 heartbeat IPC: 0.74401 cumulative IPC: 0.66648 (Simulation time: 0 hr 7 min 27 sec) 
Heartbeat CPU  0 instructions:  214000003 cycles:  215909331 heartbeat IPC: 0.71063 cumulative IPC: 0.66684 (Simulation time: 0 hr 7 min 30 sec) 
Heartbeat CPU  0 instructions:  215000002 cycles:  217092855 heartbeat IPC: 0.84493 cumulative IPC: 0.66806 (Simulation time: 0 hr 7 min 32 sec) 
Heartbeat CPU  0 instructions:  216000000 cycles:  218097007 heartbeat IPC: 0.99586 cumulative IPC: 0.66997 (Simulation time: 0 hr 7 min 34 sec) 
Heartbeat CPU  0 instructions:  217000002 cycles:  219102627 heartbeat IPC: 0.99441 cumulative IPC: 0.67184 (Simulation time: 0 hr 7 min 36 sec) 
Heartbeat CPU  0 instructions:  218000001 cycles:  220040095 heartbeat IPC: 1.06670 cumulative IPC: 0.67395 (Simulation time: 0 hr 7 min 39 sec) 
Heartbeat CPU  0 instructions:  219000001 cycles:  220990188 heartbeat IPC: 1.05253 cumulative IPC: 0.67600 (Simulation time: 0 hr 7 min 41 sec) 
Heartbeat CPU  0 instructions:  220000000 cycles:  221980979 heartbeat IPC: 1.00929 cumulative IPC: 0.67786 (Simulation time: 0 hr 7 min 43 sec) 
Heartbeat CPU  0 instructions:  221000000 cycles:  222910071 heartbeat IPC: 1.07632 cumulative IPC: 0.67994 (Simulation time: 0 hr 7 min 45 sec) 
Heartbeat CPU  0 instructions:  222000000 cycles:  224062226 heartbeat IPC: 0.86794 cumulative IPC: 0.68115 (Simulation time: 0 hr 7 min 48 sec) 
Heartbeat CPU  0 instructions:  223000001 cycles:  225146448 heartbeat IPC: 0.92232 cumulative IPC: 0.68260 (Simulation time: 0 hr 7 min 50 sec) 
Heartbeat CPU  0 instructions:  224000000 cycles:  226115573 heartbeat IPC: 1.03186 cumulative IPC: 0.68447 (Simulation time: 0 hr 7 min 52 sec) 
Heartbeat CPU  0 instructions:  225000000 cycles:  227110528 heartbeat IPC: 1.00507 cumulative IPC: 0.68622 (Simulation time: 0 hr 7 min 55 sec) 
Heartbeat CPU  0 instructions:  226000000 cycles:  228146950 heartbeat IPC: 0.96486 cumulative IPC: 0.68780 (Simulation time: 0 hr 7 min 57 sec) 
Heartbeat CPU  0 instructions:  227000003 cycles:  229256517 heartbeat IPC: 0.90126 cumulative IPC: 0.68908 (Simulation time: 0 hr 7 min 59 sec) 
Heartbeat CPU  0 instructions:  228000000 cycles:  230149997 heartbeat IPC: 1.11922 cumulative IPC: 0.69116 (Simulation time: 0 hr 8 min 1 sec) 
Heartbeat CPU  0 instructions:  229000003 cycles:  231038203 heartbeat IPC: 1.12587 cumulative IPC: 0.69323 (Simulation time: 0 hr 8 min 4 sec) 
Heartbeat CPU  0 instructions:  230000003 cycles:  231932130 heartbeat IPC: 1.11866 cumulative IPC: 0.69527 (Simulation time: 0 hr 8 min 6 sec) 
Heartbeat CPU  0 instructions:  231000000 cycles:  233025231 heartbeat IPC: 0.91483 cumulative IPC: 0.69654 (Simulation time: 0 hr 8 min 8 sec) 
Heartbeat CPU  0 instructions:  232000000 cycles:  234072682 heartbeat IPC: 0.95470 cumulative IPC: 0.69797 (Simulation time: 0 hr 8 min 10 sec) 
Heartbeat CPU  0 instructions:  233000000 cycles:  234967116 heartbeat IPC: 1.11803 cumulative IPC: 0.69995 (Simulation time: 0 hr 8 min 13 sec) 
Heartbeat CPU  0 instructions:  234000003 cycles:  235937793 heartbeat IPC: 1.03021 cumulative IPC: 0.70163 (Simulation time: 0 hr 8 min 15 sec) 
Heartbeat CPU  0 instructions:  235000001 cycles:  236895676 heartbeat IPC: 1.04397 cumulative IPC: 0.70334 (Simulation time: 0 hr 8 min 17 sec) 
Heartbeat CPU  0 instructions:  236000000 cycles:  237821736 heartbeat IPC: 1.07984 cumulative IPC: 0.70515 (Simulation time: 0 hr 8 min 19 sec) 
Heartbeat CPU  0 instructions:  237000000 cycles:  238765444 heartbeat IPC: 1.05965 cumulative IPC: 0.70687 (Simulation time: 0 hr 8 min 22 sec) 
Heartbeat CPU  0 instructions:  238000002 cycles:  239659488 heartbeat IPC: 1.11852 cumulative IPC: 0.70876 (Simulation time: 0 hr 8 min 24 sec) 
Heartbeat CPU  0 instructions:  239000001 cycles:  240525206 heartbeat IPC: 1.15511 cumulative IPC: 0.71074 (Simulation time: 0 hr 8 min 26 sec) 
Heartbeat CPU  0 instructions:  240000000 cycles:  241365849 heartbeat IPC: 1.18956 cumulative IPC: 0.71279 (Simulation time: 0 hr 8 min 28 sec) 
Heartbeat CPU  0 instructions:  241000000 cycles:  242493202 heartbeat IPC: 0.88703 cumulative IPC: 0.71378 (Simulation time: 0 hr 8 min 30 sec) 
Heartbeat CPU  0 instructions:  242000001 cycles:  243414284 heartbeat IPC: 1.08568 cumulative IPC: 0.71551 (Simulation time: 0 hr 8 min 32 sec) 
Heartbeat CPU  0 instructions:  243000001 cycles:  244342184 heartbeat IPC: 1.07770 cumulative IPC: 0.71719 (Simulation time: 0 hr 8 min 35 sec) 
Heartbeat CPU  0 instructions:  244000000 cycles:  245199963 heartbeat IPC: 1.16580 cumulative IPC: 0.71911 (Simulation time: 0 hr 8 min 37 sec) 
Heartbeat CPU  0 instructions:  245000003 cycles:  246264704 heartbeat IPC: 0.93920 cumulative IPC: 0.72028 (Simulation time: 0 hr 8 min 39 sec) 
Heartbeat CPU  0 instructions:  246000001 cycles:  247366570 heartbeat IPC: 0.90755 cumulative IPC: 0.72130 (Simulation time: 0 hr 8 min 41 sec) 
Heartbeat CPU  0 instructions:  247000002 cycles:  248447290 heartbeat IPC: 0.92531 cumulative IPC: 0.72238 (Simulation time: 0 hr 8 min 43 sec) 
Heartbeat CPU  0 instructions:  248000000 cycles:  249728274 heartbeat IPC: 0.78065 cumulative IPC: 0.72275 (Simulation time: 0 hr 8 min 45 sec) 
Heartbeat CPU  0 instructions:  249000003 cycles:  250965442 heartbeat IPC: 0.80830 cumulative IPC: 0.72326 (Simulation time: 0 hr 8 min 47 sec) 
Heartbeat CPU  0 instructions:  250000003 cycles:  252087992 heartbeat IPC: 0.89083 cumulative IPC: 0.72417 (Simulation time: 0 hr 8 min 49 sec) 
Heartbeat CPU  0 instructions:  251000001 cycles:  253352042 heartbeat IPC: 0.79111 cumulative IPC: 0.72457 (Simulation time: 0 hr 8 min 51 sec) 
Heartbeat CPU  0 instructions:  252000000 cycles:  254614531 heartbeat IPC: 0.79209 cumulative IPC: 0.72498 (Simulation time: 0 hr 8 min 53 sec) 
Heartbeat CPU  0 instructions:  253000001 cycles:  255887674 heartbeat IPC: 0.78546 cumulative IPC: 0.72535 (Simulation time: 0 hr 8 min 55 sec) 
Heartbeat CPU  0 instructions:  254000001 cycles:  257161471 heartbeat IPC: 0.78505 cumulative IPC: 0.72570 (Simulation time: 0 hr 8 min 57 sec) 
Heartbeat CPU  0 instructions:  255000000 cycles:  258388570 heartbeat IPC: 0.81493 cumulative IPC: 0.72622 (Simulation time: 0 hr 8 min 59 sec) 
Heartbeat CPU  0 instructions:  256000000 cycles:  259439640 heartbeat IPC: 0.95141 cumulative IPC: 0.72732 (Simulation time: 0 hr 9 min 2 sec) 
Heartbeat CPU  0 instructions:  257000002 cycles:  260670191 heartbeat IPC: 0.81265 cumulative IPC: 0.72781 (Simulation time: 0 hr 9 min 4 sec) 
Heartbeat CPU  0 instructions:  258000001 cycles:  261941470 heartbeat IPC: 0.78661 cumulative IPC: 0.72815 (Simulation time: 0 hr 9 min 6 sec) 
Heartbeat CPU  0 instructions:  259000000 cycles:  263208735 heartbeat IPC: 0.78910 cumulative IPC: 0.72851 (Simulation time: 0 hr 9 min 8 sec) 
Heartbeat CPU  0 instructions:  260000000 cycles:  264464229 heartbeat IPC: 0.79650 cumulative IPC: 0.72889 (Simulation time: 0 hr 9 min 10 sec) 
Heartbeat CPU  0 instructions:  261000000 cycles:  265716365 heartbeat IPC: 0.79864 cumulative IPC: 0.72929 (Simulation time: 0 hr 9 min 12 sec) 
Heartbeat CPU  0 instructions:  262000000 cycles:  266977676 heartbeat IPC: 0.79283 cumulative IPC: 0.72965 (Simulation time: 0 hr 9 min 14 sec) 
Heartbeat CPU  0 instructions:  263000001 cycles:  268101912 heartbeat IPC: 0.88949 cumulative IPC: 0.73046 (Simulation time: 0 hr 9 min 16 sec) 
Heartbeat CPU  0 instructions:  264000000 cycles:  269270897 heartbeat IPC: 0.85544 cumulative IPC: 0.73111 (Simulation time: 0 hr 9 min 18 sec) 
Heartbeat CPU  0 instructions:  265000000 cycles:  270539658 heartbeat IPC: 0.78817 cumulative IPC: 0.73143 (Simulation time: 0 hr 9 min 20 sec) 
Heartbeat CPU  0 instructions:  266000002 cycles:  271687471 heartbeat IPC: 0.87122 cumulative IPC: 0.73214 (Simulation time: 0 hr 9 min 22 sec) 
Heartbeat CPU  0 instructions:  267000002 cycles:  272946323 heartbeat IPC: 0.79437 cumulative IPC: 0.73248 (Simulation time: 0 hr 9 min 24 sec) 
Heartbeat CPU  0 instructions:  268000000 cycles:  274206470 heartbeat IPC: 0.79356 cumulative IPC: 0.73282 (Simulation time: 0 hr 9 min 26 sec) 
Heartbeat CPU  0 instructions:  269000001 cycles:  275473526 heartbeat IPC: 0.78923 cumulative IPC: 0.73313 (Simulation time: 0 hr 9 min 29 sec) 
Heartbeat CPU  0 instructions:  270000001 cycles:  276729186 heartbeat IPC: 0.79639 cumulative IPC: 0.73347 (Simulation time: 0 hr 9 min 31 sec) 
Heartbeat CPU  0 instructions:  271000000 cycles:  277978195 heartbeat IPC: 0.80063 cumulative IPC: 0.73383 (Simulation time: 0 hr 9 min 33 sec) 
Heartbeat CPU  0 instructions:  272000000 cycles:  279264208 heartbeat IPC: 0.77760 cumulative IPC: 0.73407 (Simulation time: 0 hr 9 min 35 sec) 
Heartbeat CPU  0 instructions:  273000002 cycles:  280278457 heartbeat IPC: 0.98595 cumulative IPC: 0.73515 (Simulation time: 0 hr 9 min 37 sec) 
Heartbeat CPU  0 instructions:  274000000 cycles:  281282795 heartbeat IPC: 0.99568 cumulative IPC: 0.73626 (Simulation time: 0 hr 9 min 39 sec) 
Heartbeat CPU  0 instructions:  275000003 cycles:  282294916 heartbeat IPC: 0.98803 cumulative IPC: 0.73733 (Simulation time: 0 hr 9 min 41 sec) 
Heartbeat CPU  0 instructions:  276000000 cycles:  283282143 heartbeat IPC: 1.01294 cumulative IPC: 0.73848 (Simulation time: 0 hr 9 min 44 sec) 
Heartbeat CPU  0 instructions:  277000000 cycles:  284256730 heartbeat IPC: 1.02608 cumulative IPC: 0.73965 (Simulation time: 0 hr 9 min 46 sec) 
Heartbeat CPU  0 instructions:  278000003 cycles:  285250782 heartbeat IPC: 1.00599 cumulative IPC: 0.74075 (Simulation time: 0 hr 9 min 48 sec) 
Heartbeat CPU  0 instructions:  279000003 cycles:  286237606 heartbeat IPC: 1.01335 cumulative IPC: 0.74186 (Simulation time: 0 hr 9 min 50 sec) 
Heartbeat CPU  0 instructions:  280000000 cycles:  287790823 heartbeat IPC: 0.64382 cumulative IPC: 0.74124 (Simulation time: 0 hr 9 min 53 sec) 
Heartbeat CPU  0 instructions:  281000003 cycles:  289228343 heartbeat IPC: 0.69564 cumulative IPC: 0.74097 (Simulation time: 0 hr 9 min 55 sec) 
Heartbeat CPU  0 instructions:  282000001 cycles:  290169010 heartbeat IPC: 1.06307 cumulative IPC: 0.74220 (Simulation time: 0 hr 9 min 57 sec) 
Heartbeat CPU  0 instructions:  283000002 cycles:  291337973 heartbeat IPC: 0.85546 cumulative IPC: 0.74274 (Simulation time: 0 hr 9 min 59 sec) 
Heartbeat CPU  0 instructions:  284000000 cycles:  292728217 heartbeat IPC: 0.71930 cumulative IPC: 0.74261 (Simulation time: 0 hr 10 min 1 sec) 
Heartbeat CPU  0 instructions:  285000003 cycles:  294150989 heartbeat IPC: 0.70286 cumulative IPC: 0.74238 (Simulation time: 0 hr 10 min 3 sec) 
Heartbeat CPU  0 instructions:  286000001 cycles:  295506420 heartbeat IPC: 0.73777 cumulative IPC: 0.74236 (Simulation time: 0 hr 10 min 6 sec) 
Heartbeat CPU  0 instructions:  287000001 cycles:  297016329 heartbeat IPC: 0.66229 cumulative IPC: 0.74188 (Simulation time: 0 hr 10 min 8 sec) 
Heartbeat CPU  0 instructions:  288000000 cycles:  298432816 heartbeat IPC: 0.70597 cumulative IPC: 0.74168 (Simulation time: 0 hr 10 min 10 sec) 
Heartbeat CPU  0 instructions:  289000003 cycles:  299858836 heartbeat IPC: 0.70125 cumulative IPC: 0.74145 (Simulation time: 0 hr 10 min 12 sec) 
Heartbeat CPU  0 instructions:  290000002 cycles:  301250108 heartbeat IPC: 0.71877 cumulative IPC: 0.74133 (Simulation time: 0 hr 10 min 14 sec) 
Heartbeat CPU  0 instructions:  291000002 cycles:  302717246 heartbeat IPC: 0.68160 cumulative IPC: 0.74099 (Simulation time: 0 hr 10 min 16 sec) 
Heartbeat CPU  0 instructions:  292000000 cycles:  304072582 heartbeat IPC: 0.73782 cumulative IPC: 0.74097 (Simulation time: 0 hr 10 min 18 sec) 
Heartbeat CPU  0 instructions:  293000002 cycles:  305541966 heartbeat IPC: 0.68056 cumulative IPC: 0.74063 (Simulation time: 0 hr 10 min 20 sec) 
Heartbeat CPU  0 instructions:  294000000 cycles:  307031025 heartbeat IPC: 0.67156 cumulative IPC: 0.74024 (Simulation time: 0 hr 10 min 21 sec) 
Heartbeat CPU  0 instructions:  295000001 cycles:  307921037 heartbeat IPC: 1.12358 cumulative IPC: 0.74154 (Simulation time: 0 hr 10 min 23 sec) 
Heartbeat CPU  0 instructions:  296000000 cycles:  308783194 heartbeat IPC: 1.15988 cumulative IPC: 0.74290 (Simulation time: 0 hr 10 min 25 sec) 
Heartbeat CPU  0 instructions:  297000002 cycles:  309636427 heartbeat IPC: 1.17202 cumulative IPC: 0.74429 (Simulation time: 0 hr 10 min 28 sec) 
Heartbeat CPU  0 instructions:  298000000 cycles:  311319624 heartbeat IPC: 0.59411 cumulative IPC: 0.74334 (Simulation time: 0 hr 10 min 30 sec) 
Heartbeat CPU  0 instructions:  299000002 cycles:  313076902 heartbeat IPC: 0.56906 cumulative IPC: 0.74220 (Simulation time: 0 hr 10 min 33 sec) 
Heartbeat CPU  0 instructions:  300000000 cycles:  314684738 heartbeat IPC: 0.62195 cumulative IPC: 0.74148 (Simulation time: 0 hr 10 min 35 sec) 
Heartbeat CPU  0 instructions:  301000000 cycles:  316564554 heartbeat IPC: 0.53197 cumulative IPC: 0.74003 (Simulation time: 0 hr 10 min 37 sec) 
Heartbeat CPU  0 instructions:  302000002 cycles:  317144763 heartbeat IPC: 1.72352 cumulative IPC: 0.74213 (Simulation time: 0 hr 10 min 39 sec) 
Heartbeat CPU  0 instructions:  303000001 cycles:  318401114 heartbeat IPC: 0.79596 cumulative IPC: 0.74237 (Simulation time: 0 hr 10 min 41 sec) 
Heartbeat CPU  0 instructions:  304000000 cycles:  319878048 heartbeat IPC: 0.67708 cumulative IPC: 0.74202 (Simulation time: 0 hr 10 min 44 sec) 
Heartbeat CPU  0 instructions:  305000001 cycles:  321422611 heartbeat IPC: 0.64743 cumulative IPC: 0.74149 (Simulation time: 0 hr 10 min 46 sec) 
Heartbeat CPU  0 instructions:  306000002 cycles:  327305728 heartbeat IPC: 0.16998 cumulative IPC: 0.72959 (Simulation time: 0 hr 10 min 52 sec) 
Heartbeat CPU  0 instructions:  307000001 cycles:  335444337 heartbeat IPC: 0.12287 cumulative IPC: 0.71259 (Simulation time: 0 hr 11 min 1 sec) 
Heartbeat CPU  0 instructions:  308000000 cycles:  339587137 heartbeat IPC: 0.24138 cumulative IPC: 0.70596 (Simulation time: 0 hr 11 min 5 sec) 
Heartbeat CPU  0 instructions:  309000002 cycles:  343100071 heartbeat IPC: 0.28466 cumulative IPC: 0.70100 (Simulation time: 0 hr 11 min 9 sec) 
Heartbeat CPU  0 instructions:  310000003 cycles:  346360364 heartbeat IPC: 0.30672 cumulative IPC: 0.69673 (Simulation time: 0 hr 11 min 13 sec) 
Heartbeat CPU  0 instructions:  311000002 cycles:  347591389 heartbeat IPC: 0.81233 cumulative IPC: 0.69720 (Simulation time: 0 hr 11 min 15 sec) 
 pf_cl: 2452704944699 ip: 6499714 cache_hit: 1 type: 0
 pf_cl: 2452704944699 ip: 6499714 cache_hit: 1 type: 0
 pf_cl: 2452704944699 ip: 6499714 cache_hit: 1 type: 0
 pf_cl: 2452704944699 ip: 6499714 cache_hit: 1 type: 0
 pf_cl: 2452704944699 ip: 6499714 cache_hit: 1 type: 0
 pf_cl: 2452704944699 ip: 6499714 cache_hit: 1 type: 0
 pf_cl: 2452704944699 ip: 6499714 cache_hit: 1 type: 0
 pf_cl: 2452704944699 ip: 6499714 cache_hit: 1 type: 0
Heartbeat CPU  0 instructions:  312000000 cycles:  348560876 heartbeat IPC: 1.03147 cumulative IPC: 0.69827 (Simulation time: 0 hr 11 min 17 sec) 
Heartbeat CPU  0 instructions:  313000001 cycles:  349384587 heartbeat IPC: 1.21402 cumulative IPC: 0.69967 (Simulation time: 0 hr 11 min 19 sec) 
Heartbeat CPU  0 instructions:  314000000 cycles:  350716948 heartbeat IPC: 0.75055 cumulative IPC: 0.69989 (Simulation time: 0 hr 11 min 21 sec) 
Heartbeat CPU  0 instructions:  315000003 cycles:  351961912 heartbeat IPC: 0.80324 cumulative IPC: 0.70031 (Simulation time: 0 hr 11 min 24 sec) 
Heartbeat CPU  0 instructions:  316000000 cycles:  353313617 heartbeat IPC: 0.73980 cumulative IPC: 0.70048 (Simulation time: 0 hr 11 min 26 sec) 
Heartbeat CPU  0 instructions:  317000002 cycles:  354730534 heartbeat IPC: 0.70576 cumulative IPC: 0.70050 (Simulation time: 0 hr 11 min 29 sec) 
Heartbeat CPU  0 instructions:  318000003 cycles:  355856816 heartbeat IPC: 0.88788 cumulative IPC: 0.70118 (Simulation time: 0 hr 11 min 31 sec) 
Heartbeat CPU  0 instructions:  319000000 cycles:  356868348 heartbeat IPC: 0.98860 cumulative IPC: 0.70212 (Simulation time: 0 hr 11 min 34 sec) 
Heartbeat CPU  0 instructions:  320000000 cycles:  357822788 heartbeat IPC: 1.04773 cumulative IPC: 0.70317 (Simulation time: 0 hr 11 min 36 sec) 
Heartbeat CPU  0 instructions:  321000003 cycles:  358807953 heartbeat IPC: 1.01506 cumulative IPC: 0.70415 (Simulation time: 0 hr 11 min 38 sec) 
Heartbeat CPU  0 instructions:  322000003 cycles:  359771452 heartbeat IPC: 1.03788 cumulative IPC: 0.70517 (Simulation time: 0 hr 11 min 40 sec) 
Heartbeat CPU  0 instructions:  323000001 cycles:  360743208 heartbeat IPC: 1.02906 cumulative IPC: 0.70617 (Simulation time: 0 hr 11 min 42 sec) 
Heartbeat CPU  0 instructions:  324000000 cycles:  361730172 heartbeat IPC: 1.01321 cumulative IPC: 0.70712 (Simulation time: 0 hr 11 min 45 sec) 
Heartbeat CPU  0 instructions:  325000002 cycles:  362876994 heartbeat IPC: 0.87198 cumulative IPC: 0.70772 (Simulation time: 0 hr 11 min 47 sec) 
Heartbeat CPU  0 instructions:  326000001 cycles:  363932072 heartbeat IPC: 0.94780 cumulative IPC: 0.70851 (Simulation time: 0 hr 11 min 49 sec) 
Heartbeat CPU  0 instructions:  327000002 cycles:  364943525 heartbeat IPC: 0.98868 cumulative IPC: 0.70940 (Simulation time: 0 hr 11 min 52 sec) 
Heartbeat CPU  0 instructions:  328000000 cycles:  365899840 heartbeat IPC: 1.04568 cumulative IPC: 0.71040 (Simulation time: 0 hr 11 min 54 sec) 
Heartbeat CPU  0 instructions:  329000000 cycles:  367073879 heartbeat IPC: 0.85176 cumulative IPC: 0.71091 (Simulation time: 0 hr 11 min 56 sec) 
Heartbeat CPU  0 instructions:  330000002 cycles:  368000456 heartbeat IPC: 1.07924 cumulative IPC: 0.71197 (Simulation time: 0 hr 11 min 59 sec) 
Heartbeat CPU  0 instructions:  331000003 cycles:  368971520 heartbeat IPC: 1.02980 cumulative IPC: 0.71292 (Simulation time: 0 hr 12 min 1 sec) 
Heartbeat CPU  0 instructions:  332000000 cycles:  369946778 heartbeat IPC: 1.02537 cumulative IPC: 0.71386 (Simulation time: 0 hr 12 min 3 sec) 
Heartbeat CPU  0 instructions:  333000001 cycles:  370847326 heartbeat IPC: 1.11044 cumulative IPC: 0.71496 (Simulation time: 0 hr 12 min 5 sec) 
Heartbeat CPU  0 instructions:  334000000 cycles:  371767308 heartbeat IPC: 1.08698 cumulative IPC: 0.71600 (Simulation time: 0 hr 12 min 7 sec) 
Heartbeat CPU  0 instructions:  335000000 cycles:  372683684 heartbeat IPC: 1.09126 cumulative IPC: 0.71705 (Simulation time: 0 hr 12 min 10 sec) 
Heartbeat CPU  0 instructions:  336000000 cycles:  373549055 heartbeat IPC: 1.15557 cumulative IPC: 0.71821 (Simulation time: 0 hr 12 min 12 sec) 
Heartbeat CPU  0 instructions:  337000002 cycles:  374437928 heartbeat IPC: 1.12502 cumulative IPC: 0.71931 (Simulation time: 0 hr 12 min 14 sec) 
Heartbeat CPU  0 instructions:  338000000 cycles:  375318144 heartbeat IPC: 1.13608 cumulative IPC: 0.72042 (Simulation time: 0 hr 12 min 16 sec) 
Heartbeat CPU  0 instructions:  339000000 cycles:  376491330 heartbeat IPC: 0.85238 cumulative IPC: 0.72088 (Simulation time: 0 hr 12 min 18 sec) 
Heartbeat CPU  0 instructions:  340000000 cycles:  377400900 heartbeat IPC: 1.09942 cumulative IPC: 0.72192 (Simulation time: 0 hr 12 min 21 sec) 
Heartbeat CPU  0 instructions:  341000003 cycles:  378264479 heartbeat IPC: 1.15798 cumulative IPC: 0.72305 (Simulation time: 0 hr 12 min 23 sec) 
Heartbeat CPU  0 instructions:  342000000 cycles:  379362736 heartbeat IPC: 0.91053 cumulative IPC: 0.72366 (Simulation time: 0 hr 12 min 25 sec) 
Heartbeat CPU  0 instructions:  343000001 cycles:  380391692 heartbeat IPC: 0.97186 cumulative IPC: 0.72443 (Simulation time: 0 hr 12 min 27 sec) 
Heartbeat CPU  0 instructions:  344000000 cycles:  381327407 heartbeat IPC: 1.06870 cumulative IPC: 0.72538 (Simulation time: 0 hr 12 min 29 sec) 
Heartbeat CPU  0 instructions:  345000003 cycles:  382248853 heartbeat IPC: 1.08525 cumulative IPC: 0.72637 (Simulation time: 0 hr 12 min 31 sec) 
Heartbeat CPU  0 instructions:  346000001 cycles:  383173045 heartbeat IPC: 1.08202 cumulative IPC: 0.72734 (Simulation time: 0 hr 12 min 34 sec) 
Heartbeat CPU  0 instructions:  347000002 cycles:  384036155 heartbeat IPC: 1.15860 cumulative IPC: 0.72844 (Simulation time: 0 hr 12 min 36 sec) 
Heartbeat CPU  0 instructions:  348000000 cycles:  384890420 heartbeat IPC: 1.17059 cumulative IPC: 0.72955 (Simulation time: 0 hr 12 min 38 sec) 
Heartbeat CPU  0 instructions:  349000001 cycles:  386187764 heartbeat IPC: 0.77081 cumulative IPC: 0.72970 (Simulation time: 0 hr 12 min 40 sec) 
Heartbeat CPU  0 instructions:  350000001 cycles:  387130094 heartbeat IPC: 1.06120 cumulative IPC: 0.73062 (Simulation time: 0 hr 12 min 42 sec) 
Heartbeat CPU  0 instructions:  351000000 cycles:  388075894 heartbeat IPC: 1.05730 cumulative IPC: 0.73152 (Simulation time: 0 hr 12 min 44 sec) 
Heartbeat CPU  0 instructions:  352000000 cycles:  389272301 heartbeat IPC: 0.83584 cumulative IPC: 0.73188 (Simulation time: 0 hr 12 min 46 sec) 
Heartbeat CPU  0 instructions:  353000001 cycles:  390550023 heartbeat IPC: 0.78264 cumulative IPC: 0.73207 (Simulation time: 0 hr 12 min 49 sec) 
Heartbeat CPU  0 instructions:  354000000 cycles:  391698537 heartbeat IPC: 0.87069 cumulative IPC: 0.73253 (Simulation time: 0 hr 12 min 51 sec) 
Heartbeat CPU  0 instructions:  355000003 cycles:  392973150 heartbeat IPC: 0.78455 cumulative IPC: 0.73272 (Simulation time: 0 hr 12 min 53 sec) 
Heartbeat CPU  0 instructions:  356000000 cycles:  394123874 heartbeat IPC: 0.86902 cumulative IPC: 0.73317 (Simulation time: 0 hr 12 min 55 sec) 
Heartbeat CPU  0 instructions:  357000000 cycles:  395212402 heartbeat IPC: 0.91867 cumulative IPC: 0.73374 (Simulation time: 0 hr 12 min 57 sec) 
Heartbeat CPU  0 instructions:  358000001 cycles:  396149140 heartbeat IPC: 1.06754 cumulative IPC: 0.73463 (Simulation time: 0 hr 12 min 59 sec) 
Heartbeat CPU  0 instructions:  359000002 cycles:  397293465 heartbeat IPC: 0.87388 cumulative IPC: 0.73509 (Simulation time: 0 hr 13 min 1 sec) 
Heartbeat CPU  0 instructions:  360000000 cycles:  398551002 heartbeat IPC: 0.79520 cumulative IPC: 0.73530 (Simulation time: 0 hr 13 min 3 sec) 
Heartbeat CPU  0 instructions:  361000001 cycles:  399805497 heartbeat IPC: 0.79713 cumulative IPC: 0.73552 (Simulation time: 0 hr 13 min 5 sec) 
Heartbeat CPU  0 instructions:  362000000 cycles:  401074307 heartbeat IPC: 0.78814 cumulative IPC: 0.73571 (Simulation time: 0 hr 13 min 7 sec) 
Heartbeat CPU  0 instructions:  363000001 cycles:  402332655 heartbeat IPC: 0.79469 cumulative IPC: 0.73591 (Simulation time: 0 hr 13 min 10 sec) 
Heartbeat CPU  0 instructions:  364000000 cycles:  403595000 heartbeat IPC: 0.79218 cumulative IPC: 0.73611 (Simulation time: 0 hr 13 min 12 sec) 
Heartbeat CPU  0 instructions:  365000000 cycles:  404846363 heartbeat IPC: 0.79913 cumulative IPC: 0.73633 (Simulation time: 0 hr 13 min 14 sec) 
Heartbeat CPU  0 instructions:  366000000 cycles:  406074996 heartbeat IPC: 0.81391 cumulative IPC: 0.73659 (Simulation time: 0 hr 13 min 16 sec) 
Heartbeat CPU  0 instructions:  367000003 cycles:  407308927 heartbeat IPC: 0.81042 cumulative IPC: 0.73685 (Simulation time: 0 hr 13 min 18 sec) 
Heartbeat CPU  0 instructions:  368000000 cycles:  408585994 heartbeat IPC: 0.78304 cumulative IPC: 0.73701 (Simulation time: 0 hr 13 min 20 sec) 
Heartbeat CPU  0 instructions:  369000000 cycles:  409806016 heartbeat IPC: 0.81966 cumulative IPC: 0.73728 (Simulation time: 0 hr 13 min 22 sec) 
Heartbeat CPU  0 instructions:  370000000 cycles:  411045942 heartbeat IPC: 0.80650 cumulative IPC: 0.73752 (Simulation time: 0 hr 13 min 24 sec) 
Heartbeat CPU  0 instructions:  371000002 cycles:  412295965 heartbeat IPC: 0.79999 cumulative IPC: 0.73773 (Simulation time: 0 hr 13 min 26 sec) 
Heartbeat CPU  0 instructions:  372000000 cycles:  413552472 heartbeat IPC: 0.79586 cumulative IPC: 0.73793 (Simulation time: 0 hr 13 min 28 sec) 
Heartbeat CPU  0 instructions:  373000000 cycles:  414806108 heartbeat IPC: 0.79768 cumulative IPC: 0.73813 (Simulation time: 0 hr 13 min 30 sec) 
Heartbeat CPU  0 instructions:  374000001 cycles:  416067852 heartbeat IPC: 0.79255 cumulative IPC: 0.73832 (Simulation time: 0 hr 13 min 32 sec) 
Heartbeat CPU  0 instructions:  375000000 cycles:  417326541 heartbeat IPC: 0.79448 cumulative IPC: 0.73851 (Simulation time: 0 hr 13 min 35 sec) 
Heartbeat CPU  0 instructions:  376000000 cycles:  418599028 heartbeat IPC: 0.78586 cumulative IPC: 0.73867 (Simulation time: 0 hr 13 min 37 sec) 
Heartbeat CPU  0 instructions:  377000001 cycles:  419800767 heartbeat IPC: 0.83213 cumulative IPC: 0.73897 (Simulation time: 0 hr 13 min 39 sec) 
Heartbeat CPU  0 instructions:  378000002 cycles:  420813602 heartbeat IPC: 0.98733 cumulative IPC: 0.73964 (Simulation time: 0 hr 13 min 41 sec) 
Heartbeat CPU  0 instructions:  379000003 cycles:  421798593 heartbeat IPC: 1.01524 cumulative IPC: 0.74036 (Simulation time: 0 hr 13 min 43 sec) 
Heartbeat CPU  0 instructions:  380000000 cycles:  422795820 heartbeat IPC: 1.00278 cumulative IPC: 0.74105 (Simulation time: 0 hr 13 min 45 sec) 
Heartbeat CPU  0 instructions:  381000002 cycles:  423789388 heartbeat IPC: 1.00648 cumulative IPC: 0.74175 (Simulation time: 0 hr 13 min 48 sec) 
Heartbeat CPU  0 instructions:  382000001 cycles:  424790351 heartbeat IPC: 0.99904 cumulative IPC: 0.74242 (Simulation time: 0 hr 13 min 50 sec) 
Heartbeat CPU  0 instructions:  383000002 cycles:  425768640 heartbeat IPC: 1.02219 cumulative IPC: 0.74314 (Simulation time: 0 hr 13 min 52 sec) 
Heartbeat CPU  0 instructions:  384000000 cycles:  426737108 heartbeat IPC: 1.03256 cumulative IPC: 0.74388 (Simulation time: 0 hr 13 min 54 sec) 
Heartbeat CPU  0 instructions:  385000001 cycles:  428465420 heartbeat IPC: 0.57860 cumulative IPC: 0.74313 (Simulation time: 0 hr 13 min 57 sec) 
Heartbeat CPU  0 instructions:  386000000 cycles:  429686101 heartbeat IPC: 0.81921 cumulative IPC: 0.74337 (Simulation time: 0 hr 13 min 59 sec) 
Heartbeat CPU  0 instructions:  387000002 cycles:  430715908 heartbeat IPC: 0.97106 cumulative IPC: 0.74398 (Simulation time: 0 hr 14 min 1 sec) 
Heartbeat CPU  0 instructions:  388000000 cycles:  431862344 heartbeat IPC: 0.87227 cumulative IPC: 0.74436 (Simulation time: 0 hr 14 min 3 sec) 
Heartbeat CPU  0 instructions:  389000001 cycles:  433362024 heartbeat IPC: 0.66681 cumulative IPC: 0.74406 (Simulation time: 0 hr 14 min 5 sec) 
Heartbeat CPU  0 instructions:  390000000 cycles:  434689586 heartbeat IPC: 0.75326 cumulative IPC: 0.74409 (Simulation time: 0 hr 14 min 7 sec) 
Heartbeat CPU  0 instructions:  391000000 cycles:  436201678 heartbeat IPC: 0.66134 cumulative IPC: 0.74377 (Simulation time: 0 hr 14 min 9 sec) 
Heartbeat CPU  0 instructions:  392000000 cycles:  437560588 heartbeat IPC: 0.73588 cumulative IPC: 0.74375 (Simulation time: 0 hr 14 min 11 sec) 
Heartbeat CPU  0 instructions:  393000001 cycles:  439010573 heartbeat IPC: 0.68966 cumulative IPC: 0.74355 (Simulation time: 0 hr 14 min 13 sec) 
Heartbeat CPU  0 instructions:  394000001 cycles:  440420994 heartbeat IPC: 0.70901 cumulative IPC: 0.74342 (Simulation time: 0 hr 14 min 16 sec) 
Heartbeat CPU  0 instructions:  395000001 cycles:  441872496 heartbeat IPC: 0.68894 cumulative IPC: 0.74323 (Simulation time: 0 hr 14 min 17 sec) 
Heartbeat CPU  0 instructions:  396000000 cycles:  443265048 heartbeat IPC: 0.71811 cumulative IPC: 0.74314 (Simulation time: 0 hr 14 min 19 sec) 
Heartbeat CPU  0 instructions:  397000000 cycles:  444754062 heartbeat IPC: 0.67159 cumulative IPC: 0.74287 (Simulation time: 0 hr 14 min 21 sec) 
Heartbeat CPU  0 instructions:  398000000 cycles:  446223952 heartbeat IPC: 0.68032 cumulative IPC: 0.74264 (Simulation time: 0 hr 14 min 23 sec) 
Heartbeat CPU  0 instructions:  399000000 cycles:  447402156 heartbeat IPC: 0.84875 cumulative IPC: 0.74295 (Simulation time: 0 hr 14 min 25 sec) 
Heartbeat CPU  0 instructions:  400000000 cycles:  448044724 heartbeat IPC: 1.55626 cumulative IPC: 0.74425 (Simulation time: 0 hr 14 min 28 sec) 
Heartbeat CPU  0 instructions:  401000001 cycles:  449008547 heartbeat IPC: 1.03754 cumulative IPC: 0.74495 (Simulation time: 0 hr 14 min 30 sec) 
Heartbeat CPU  0 instructions:  402000000 cycles:  450262330 heartbeat IPC: 0.79759 cumulative IPC: 0.74511 (Simulation time: 0 hr 14 min 32 sec) 
Heartbeat CPU  0 instructions:  403000001 cycles:  452185344 heartbeat IPC: 0.52002 cumulative IPC: 0.74405 (Simulation time: 0 hr 14 min 35 sec) 
Heartbeat CPU  0 instructions:  404000000 cycles:  453922548 heartbeat IPC: 0.57564 cumulative IPC: 0.74333 (Simulation time: 0 hr 14 min 38 sec) 
Heartbeat CPU  0 instructions:  405000002 cycles:  455631034 heartbeat IPC: 0.58531 cumulative IPC: 0.74268 (Simulation time: 0 hr 14 min 40 sec) 
Heartbeat CPU  0 instructions:  406000001 cycles:  456544419 heartbeat IPC: 1.09483 cumulative IPC: 0.74346 (Simulation time: 0 hr 14 min 42 sec) 
Heartbeat CPU  0 instructions:  407000002 cycles:  457633925 heartbeat IPC: 0.91785 cumulative IPC: 0.74392 (Simulation time: 0 hr 14 min 44 sec) 
Heartbeat CPU  0 instructions:  408000000 cycles:  458981646 heartbeat IPC: 0.74199 cumulative IPC: 0.74391 (Simulation time: 0 hr 14 min 46 sec) 
Heartbeat CPU  0 instructions:  409000001 cycles:  460291971 heartbeat IPC: 0.76317 cumulative IPC: 0.74397 (Simulation time: 0 hr 14 min 49 sec) 
Heartbeat CPU  0 instructions:  410000000 cycles:  464544969 heartbeat IPC: 0.23513 cumulative IPC: 0.73881 (Simulation time: 0 hr 14 min 53 sec) 
Heartbeat CPU  0 instructions:  411000000 cycles:  472580240 heartbeat IPC: 0.12445 cumulative IPC: 0.72727 (Simulation time: 0 hr 15 min 2 sec) 
Heartbeat CPU  0 instructions:  412000000 cycles:  478260816 heartbeat IPC: 0.17604 cumulative IPC: 0.72004 (Simulation time: 0 hr 15 min 8 sec) 
Heartbeat CPU  0 instructions:  413000000 cycles:  481726931 heartbeat IPC: 0.28851 cumulative IPC: 0.71662 (Simulation time: 0 hr 15 min 12 sec) 
Heartbeat CPU  0 instructions:  414000000 cycles:  485501982 heartbeat IPC: 0.26490 cumulative IPC: 0.71275 (Simulation time: 0 hr 15 min 16 sec) 
Heartbeat CPU  0 instructions:  415000000 cycles:  486578293 heartbeat IPC: 0.92910 cumulative IPC: 0.71328 (Simulation time: 0 hr 15 min 18 sec) 
 pf_cl: 2452704944699 ip: 6499714 cache_hit: 1 type: 0
 pf_cl: 2452704944699 ip: 6499714 cache_hit: 1 type: 0
 pf_cl: 2452704944699 ip: 6499714 cache_hit: 1 type: 0
 pf_cl: 2452704944699 ip: 6499714 cache_hit: 1 type: 0
 pf_cl: 2452704944699 ip: 6499714 cache_hit: 1 type: 0
 pf_cl: 2452704944699 ip: 6499714 cache_hit: 1 type: 0
 pf_cl: 2452704944699 ip: 6499714 cache_hit: 1 type: 0
 pf_cl: 2452704944699 ip: 6499714 cache_hit: 1 type: 0
Heartbeat CPU  0 instructions:  416000000 cycles:  487828597 heartbeat IPC: 0.79981 cumulative IPC: 0.71352 (Simulation time: 0 hr 15 min 20 sec) 
Heartbeat CPU  0 instructions:  417000001 cycles:  488554697 heartbeat IPC: 1.37722 cumulative IPC: 0.71461 (Simulation time: 0 hr 15 min 22 sec) 
Heartbeat CPU  0 instructions:  418000000 cycles:  489803459 heartbeat IPC: 0.80079 cumulative IPC: 0.71485 (Simulation time: 0 hr 15 min 25 sec) 
Heartbeat CPU  0 instructions:  419000000 cycles:  491074567 heartbeat IPC: 0.78672 cumulative IPC: 0.71505 (Simulation time: 0 hr 15 min 27 sec) 
Heartbeat CPU  0 instructions:  420000000 cycles:  492423076 heartbeat IPC: 0.74156 cumulative IPC: 0.71513 (Simulation time: 0 hr 15 min 30 sec) 
Heartbeat CPU  0 instructions:  421000002 cycles:  493831792 heartbeat IPC: 0.70987 cumulative IPC: 0.71512 (Simulation time: 0 hr 15 min 33 sec) 
Heartbeat CPU  0 instructions:  422000001 cycles:  495042603 heartbeat IPC: 0.82589 cumulative IPC: 0.71541 (Simulation time: 0 hr 15 min 35 sec) 
Heartbeat CPU  0 instructions:  423000000 cycles:  496042679 heartbeat IPC: 0.99992 cumulative IPC: 0.71604 (Simulation time: 0 hr 15 min 37 sec) 
Heartbeat CPU  0 instructions:  424000000 cycles:  497068184 heartbeat IPC: 0.97513 cumulative IPC: 0.71663 (Simulation time: 0 hr 15 min 40 sec) 
Heartbeat CPU  0 instructions:  425000002 cycles:  498233676 heartbeat IPC: 0.85801 cumulative IPC: 0.71700 (Simulation time: 0 hr 15 min 42 sec) 
Heartbeat CPU  0 instructions:  426000003 cycles:  499244747 heartbeat IPC: 0.98905 cumulative IPC: 0.71760 (Simulation time: 0 hr 15 min 45 sec) 
Heartbeat CPU  0 instructions:  427000000 cycles:  500219698 heartbeat IPC: 1.02569 cumulative IPC: 0.71826 (Simulation time: 0 hr 15 min 47 sec) 
Heartbeat CPU  0 instructions:  428000000 cycles:  501142399 heartbeat IPC: 1.08377 cumulative IPC: 0.71900 (Simulation time: 0 hr 15 min 49 sec) 
Heartbeat CPU  0 instructions:  429000000 cycles:  502112260 heartbeat IPC: 1.03108 cumulative IPC: 0.71966 (Simulation time: 0 hr 15 min 51 sec) 
Heartbeat CPU  0 instructions:  430000002 cycles:  503086632 heartbeat IPC: 1.02630 cumulative IPC: 0.72031 (Simulation time: 0 hr 15 min 54 sec) 
Heartbeat CPU  0 instructions:  431000000 cycles:  504095579 heartbeat IPC: 0.99113 cumulative IPC: 0.72091 (Simulation time: 0 hr 15 min 56 sec) 
Heartbeat CPU  0 instructions:  432000000 cycles:  505191123 heartbeat IPC: 0.91279 cumulative IPC: 0.72137 (Simulation time: 0 hr 15 min 59 sec) 
Heartbeat CPU  0 instructions:  433000000 cycles:  506159514 heartbeat IPC: 1.03264 cumulative IPC: 0.72202 (Simulation time: 0 hr 16 min 1 sec) 
Heartbeat CPU  0 instructions:  434000001 cycles:  507088534 heartbeat IPC: 1.07640 cumulative IPC: 0.72273 (Simulation time: 0 hr 16 min 3 sec) 
Heartbeat CPU  0 instructions:  435000001 cycles:  508078612 heartbeat IPC: 1.01002 cumulative IPC: 0.72335 (Simulation time: 0 hr 16 min 6 sec) 
Heartbeat CPU  0 instructions:  436000000 cycles:  509008550 heartbeat IPC: 1.07534 cumulative IPC: 0.72405 (Simulation time: 0 hr 16 min 8 sec) 
Heartbeat CPU  0 instructions:  437000003 cycles:  509898990 heartbeat IPC: 1.12304 cumulative IPC: 0.72482 (Simulation time: 0 hr 16 min 10 sec) 
Heartbeat CPU  0 instructions:  438000001 cycles:  510849758 heartbeat IPC: 1.05178 cumulative IPC: 0.72548 (Simulation time: 0 hr 16 min 12 sec) 
Heartbeat CPU  0 instructions:  439000000 cycles:  511698400 heartbeat IPC: 1.17835 cumulative IPC: 0.72631 (Simulation time: 0 hr 16 min 14 sec) 
Heartbeat CPU  0 instructions:  440000000 cycles:  512744072 heartbeat IPC: 0.95632 cumulative IPC: 0.72682 (Simulation time: 0 hr 16 min 17 sec) 
Heartbeat CPU  0 instructions:  441000000 cycles:  513789440 heartbeat IPC: 0.95660 cumulative IPC: 0.72733 (Simulation time: 0 hr 16 min 19 sec) 
Heartbeat CPU  0 instructions:  442000002 cycles:  514718663 heartbeat IPC: 1.07617 cumulative IPC: 0.72802 (Simulation time: 0 hr 16 min 22 sec) 
Heartbeat CPU  0 instructions:  443000002 cycles:  515718060 heartbeat IPC: 1.00060 cumulative IPC: 0.72860 (Simulation time: 0 hr 16 min 24 sec) 
Heartbeat CPU  0 instructions:  444000000 cycles:  516663887 heartbeat IPC: 1.05727 cumulative IPC: 0.72926 (Simulation time: 0 hr 16 min 26 sec) 
Heartbeat CPU  0 instructions:  445000000 cycles:  517682404 heartbeat IPC: 0.98182 cumulative IPC: 0.72981 (Simulation time: 0 hr 16 min 29 sec) 
Heartbeat CPU  0 instructions:  446000003 cycles:  518602355 heartbeat IPC: 1.08702 cumulative IPC: 0.73050 (Simulation time: 0 hr 16 min 31 sec) 
Heartbeat CPU  0 instructions:  447000000 cycles:  519477423 heartbeat IPC: 1.14276 cumulative IPC: 0.73126 (Simulation time: 0 hr 16 min 33 sec) 
Heartbeat CPU  0 instructions:  448000000 cycles:  520359541 heartbeat IPC: 1.13364 cumulative IPC: 0.73201 (Simulation time: 0 hr 16 min 35 sec) 
Heartbeat CPU  0 instructions:  449000002 cycles:  521292588 heartbeat IPC: 1.07176 cumulative IPC: 0.73267 (Simulation time: 0 hr 16 min 37 sec) 
Heartbeat CPU  0 instructions:  450000003 cycles:  522280202 heartbeat IPC: 1.01254 cumulative IPC: 0.73325 (Simulation time: 0 hr 16 min 40 sec) 
Heartbeat CPU  0 instructions:  451000000 cycles:  523216560 heartbeat IPC: 1.06796 cumulative IPC: 0.73391 (Simulation time: 0 hr 16 min 42 sec) 
Heartbeat CPU  0 instructions:  452000000 cycles:  524134965 heartbeat IPC: 1.08884 cumulative IPC: 0.73459 (Simulation time: 0 hr 16 min 44 sec) 
Heartbeat CPU  0 instructions:  453000000 cycles:  525093288 heartbeat IPC: 1.04349 cumulative IPC: 0.73520 (Simulation time: 0 hr 16 min 47 sec) 
Heartbeat CPU  0 instructions:  454000000 cycles:  526261839 heartbeat IPC: 0.85576 cumulative IPC: 0.73550 (Simulation time: 0 hr 16 min 49 sec) 
Heartbeat CPU  0 instructions:  455000000 cycles:  527535446 heartbeat IPC: 0.78517 cumulative IPC: 0.73563 (Simulation time: 0 hr 16 min 51 sec) 
Heartbeat CPU  0 instructions:  456000000 cycles:  528792454 heartbeat IPC: 0.79554 cumulative IPC: 0.73578 (Simulation time: 0 hr 16 min 53 sec) 
Heartbeat CPU  0 instructions:  457000001 cycles:  529958489 heartbeat IPC: 0.85761 cumulative IPC: 0.73608 (Simulation time: 0 hr 16 min 55 sec) 
Heartbeat CPU  0 instructions:  458000001 cycles:  531206980 heartbeat IPC: 0.80097 cumulative IPC: 0.73624 (Simulation time: 0 hr 16 min 57 sec) 
Heartbeat CPU  0 instructions:  459000000 cycles:  532435560 heartbeat IPC: 0.81395 cumulative IPC: 0.73644 (Simulation time: 0 hr 17 min 0 sec) 
Heartbeat CPU  0 instructions:  460000000 cycles:  533691515 heartbeat IPC: 0.79621 cumulative IPC: 0.73659 (Simulation time: 0 hr 17 min 2 sec) 
Heartbeat CPU  0 instructions:  461000000 cycles:  534874153 heartbeat IPC: 0.84557 cumulative IPC: 0.73685 (Simulation time: 0 hr 17 min 4 sec) 
Heartbeat CPU  0 instructions:  462000002 cycles:  536125188 heartbeat IPC: 0.79934 cumulative IPC: 0.73701 (Simulation time: 0 hr 17 min 6 sec) 
Heartbeat CPU  0 instructions:  463000000 cycles:  537388781 heartbeat IPC: 0.79139 cumulative IPC: 0.73715 (Simulation time: 0 hr 17 min 8 sec) 
Heartbeat CPU  0 instructions:  464000000 cycles:  538629348 heartbeat IPC: 0.80608 cumulative IPC: 0.73733 (Simulation time: 0 hr 17 min 10 sec) 
Heartbeat CPU  0 instructions:  465000000 cycles:  539867801 heartbeat IPC: 0.80746 cumulative IPC: 0.73750 (Simulation time: 0 hr 17 min 12 sec) 
Heartbeat CPU  0 instructions:  466000000 cycles:  541100097 heartbeat IPC: 0.81149 cumulative IPC: 0.73769 (Simulation time: 0 hr 17 min 15 sec) 
Heartbeat CPU  0 instructions:  467000000 cycles:  542337028 heartbeat IPC: 0.80845 cumulative IPC: 0.73786 (Simulation time: 0 hr 17 min 17 sec) 
Heartbeat CPU  0 instructions:  468000000 cycles:  543596356 heartbeat IPC: 0.79407 cumulative IPC: 0.73800 (Simulation time: 0 hr 17 min 19 sec) 
Heartbeat CPU  0 instructions:  469000001 cycles:  544843610 heartbeat IPC: 0.80176 cumulative IPC: 0.73816 (Simulation time: 0 hr 17 min 21 sec) 
Heartbeat CPU  0 instructions:  470000001 cycles:  546082326 heartbeat IPC: 0.80729 cumulative IPC: 0.73833 (Simulation time: 0 hr 17 min 23 sec) 
Heartbeat CPU  0 instructions:  471000000 cycles:  547326564 heartbeat IPC: 0.80370 cumulative IPC: 0.73850 (Simulation time: 0 hr 17 min 25 sec) 
Heartbeat CPU  0 instructions:  472000000 cycles:  548566130 heartbeat IPC: 0.80673 cumulative IPC: 0.73866 (Simulation time: 0 hr 17 min 27 sec) 
Heartbeat CPU  0 instructions:  473000000 cycles:  549808210 heartbeat IPC: 0.80510 cumulative IPC: 0.73883 (Simulation time: 0 hr 17 min 30 sec) 
Heartbeat CPU  0 instructions:  474000000 cycles:  551051287 heartbeat IPC: 0.80446 cumulative IPC: 0.73899 (Simulation time: 0 hr 17 min 32 sec) 
Heartbeat CPU  0 instructions:  475000000 cycles:  552288137 heartbeat IPC: 0.80851 cumulative IPC: 0.73916 (Simulation time: 0 hr 17 min 34 sec) 
Heartbeat CPU  0 instructions:  476000000 cycles:  553531137 heartbeat IPC: 0.80451 cumulative IPC: 0.73932 (Simulation time: 0 hr 17 min 36 sec) 
Heartbeat CPU  0 instructions:  477000001 cycles:  554763912 heartbeat IPC: 0.81118 cumulative IPC: 0.73949 (Simulation time: 0 hr 17 min 38 sec) 
Heartbeat CPU  0 instructions:  478000002 cycles:  556026161 heartbeat IPC: 0.79224 cumulative IPC: 0.73962 (Simulation time: 0 hr 17 min 40 sec) 
Heartbeat CPU  0 instructions:  479000000 cycles:  557045491 heartbeat IPC: 0.98103 cumulative IPC: 0.74010 (Simulation time: 0 hr 17 min 43 sec) 
Heartbeat CPU  0 instructions:  480000000 cycles:  558064896 heartbeat IPC: 0.98096 cumulative IPC: 0.74058 (Simulation time: 0 hr 17 min 45 sec) 
Heartbeat CPU  0 instructions:  481000001 cycles:  559054287 heartbeat IPC: 1.01072 cumulative IPC: 0.74110 (Simulation time: 0 hr 17 min 47 sec) 
Heartbeat CPU  0 instructions:  482000002 cycles:  560030005 heartbeat IPC: 1.02489 cumulative IPC: 0.74164 (Simulation time: 0 hr 17 min 49 sec) 
Heartbeat CPU  0 instructions:  483000001 cycles:  561028068 heartbeat IPC: 1.00194 cumulative IPC: 0.74214 (Simulation time: 0 hr 17 min 52 sec) 
Heartbeat CPU  0 instructions:  484000000 cycles:  562018555 heartbeat IPC: 1.00960 cumulative IPC: 0.74265 (Simulation time: 0 hr 17 min 54 sec) 
Heartbeat CPU  0 instructions:  485000002 cycles:  563016054 heartbeat IPC: 1.00251 cumulative IPC: 0.74315 (Simulation time: 0 hr 17 min 56 sec) 
Heartbeat CPU  0 instructions:  486000001 cycles:  564581057 heartbeat IPC: 0.63898 cumulative IPC: 0.74284 (Simulation time: 0 hr 17 min 59 sec) 
Heartbeat CPU  0 instructions:  487000000 cycles:  565919391 heartbeat IPC: 0.74720 cumulative IPC: 0.74285 (Simulation time: 0 hr 18 min 1 sec) 
Heartbeat CPU  0 instructions:  488000000 cycles:  566865946 heartbeat IPC: 1.05646 cumulative IPC: 0.74342 (Simulation time: 0 hr 18 min 3 sec) 
Heartbeat CPU  0 instructions:  489000002 cycles:  568026475 heartbeat IPC: 0.86168 cumulative IPC: 0.74368 (Simulation time: 0 hr 18 min 5 sec) 
Heartbeat CPU  0 instructions:  490000002 cycles:  569441490 heartbeat IPC: 0.70671 cumulative IPC: 0.74358 (Simulation time: 0 hr 18 min 8 sec) 
Heartbeat CPU  0 instructions:  491000001 cycles:  570860848 heartbeat IPC: 0.70454 cumulative IPC: 0.74348 (Simulation time: 0 hr 18 min 10 sec) 
Heartbeat CPU  0 instructions:  492000000 cycles:  572153879 heartbeat IPC: 0.77338 cumulative IPC: 0.74355 (Simulation time: 0 hr 18 min 12 sec) 
Heartbeat CPU  0 instructions:  493000003 cycles:  573563019 heartbeat IPC: 0.70965 cumulative IPC: 0.74346 (Simulation time: 0 hr 18 min 14 sec) 
Heartbeat CPU  0 instructions:  494000000 cycles:  575018983 heartbeat IPC: 0.68683 cumulative IPC: 0.74330 (Simulation time: 0 hr 18 min 16 sec) 
Heartbeat CPU  0 instructions:  495000001 cycles:  576427009 heartbeat IPC: 0.71021 cumulative IPC: 0.74322 (Simulation time: 0 hr 18 min 18 sec) 
Heartbeat CPU  0 instructions:  496000000 cycles:  577871209 heartbeat IPC: 0.69242 cumulative IPC: 0.74308 (Simulation time: 0 hr 18 min 20 sec) 
Heartbeat CPU  0 instructions:  497000002 cycles:  579255691 heartbeat IPC: 0.72229 cumulative IPC: 0.74303 (Simulation time: 0 hr 18 min 22 sec) 
Heartbeat CPU  0 instructions:  498000000 cycles:  580726266 heartbeat IPC: 0.68000 cumulative IPC: 0.74285 (Simulation time: 0 hr 18 min 24 sec) 
Heartbeat CPU  0 instructions:  499000000 cycles:  582219848 heartbeat IPC: 0.66953 cumulative IPC: 0.74265 (Simulation time: 0 hr 18 min 26 sec) 
Heartbeat CPU  0 instructions:  500000000 cycles:  583039653 heartbeat IPC: 1.21980 cumulative IPC: 0.74338 (Simulation time: 0 hr 18 min 28 sec) 
Heartbeat CPU  0 instructions:  501000000 cycles:  583880650 heartbeat IPC: 1.18906 cumulative IPC: 0.74407 (Simulation time: 0 hr 18 min 30 sec) 
Heartbeat CPU  0 instructions:  502000000 cycles:  584755591 heartbeat IPC: 1.14293 cumulative IPC: 0.74472 (Simulation time: 0 hr 18 min 33 sec) 
Heartbeat CPU  0 instructions:  503000002 cycles:  586518407 heartbeat IPC: 0.56728 cumulative IPC: 0.74414 (Simulation time: 0 hr 18 min 35 sec) 
Heartbeat CPU  0 instructions:  504000000 cycles:  588217688 heartbeat IPC: 0.58848 cumulative IPC: 0.74365 (Simulation time: 0 hr 18 min 38 sec) 
Heartbeat CPU  0 instructions:  505000001 cycles:  589835673 heartbeat IPC: 0.61805 cumulative IPC: 0.74328 (Simulation time: 0 hr 18 min 40 sec) 
Heartbeat CPU  0 instructions:  506000001 cycles:  591631656 heartbeat IPC: 0.55680 cumulative IPC: 0.74267 (Simulation time: 0 hr 18 min 42 sec) 
Heartbeat CPU  0 instructions:  507000003 cycles:  592317456 heartbeat IPC: 1.45815 cumulative IPC: 0.74356 (Simulation time: 0 hr 18 min 44 sec) 
Heartbeat CPU  0 instructions:  508000000 cycles:  593543363 heartbeat IPC: 0.81572 cumulative IPC: 0.74373 (Simulation time: 0 hr 18 min 46 sec) 
Heartbeat CPU  0 instructions:  509000002 cycles:  594996480 heartbeat IPC: 0.68818 cumulative IPC: 0.74358 (Simulation time: 0 hr 18 min 49 sec) 
Heartbeat CPU  0 instructions:  510000000 cycles:  596389571 heartbeat IPC: 0.71783 cumulative IPC: 0.74351 (Simulation time: 0 hr 18 min 52 sec) 
Heartbeat CPU  0 instructions:  511000000 cycles:  601944026 heartbeat IPC: 0.18004 cumulative IPC: 0.73789 (Simulation time: 0 hr 18 min 58 sec) 
Heartbeat CPU  0 instructions:  512000000 cycles:  610044830 heartbeat IPC: 0.12344 cumulative IPC: 0.72909 (Simulation time: 0 hr 19 min 6 sec) 
Heartbeat CPU  0 instructions:  513000000 cycles:  614538281 heartbeat IPC: 0.22255 cumulative IPC: 0.72509 (Simulation time: 0 hr 19 min 11 sec) 
Heartbeat CPU  0 instructions:  514000003 cycles:  618044213 heartbeat IPC: 0.28523 cumulative IPC: 0.72240 (Simulation time: 0 hr 19 min 15 sec) 
Heartbeat CPU  0 instructions:  515000000 cycles:  621429637 heartbeat IPC: 0.29538 cumulative IPC: 0.71989 (Simulation time: 0 hr 19 min 19 sec) 
Heartbeat CPU  0 instructions:  516000000 cycles:  622657158 heartbeat IPC: 0.81465 cumulative IPC: 0.72009 (Simulation time: 0 hr 19 min 21 sec) 
 pf_cl: 2452704944699 ip: 6499714 cache_hit: 1 type: 0
 pf_cl: 2452704944699 ip: 6499714 cache_hit: 1 type: 0
 pf_cl: 2452704944699 ip: 6499714 cache_hit: 1 type: 0
 pf_cl: 2452704944699 ip: 6499714 cache_hit: 1 type: 0
 pf_cl: 2452704944699 ip: 6499714 cache_hit: 1 type: 0
 pf_cl: 2452704944699 ip: 6499714 cache_hit: 1 type: 0
[...]
Heartbeat CPU  0 instructions:  486000003 cycles: 3793914151 heartbeat IPC: 0.10271 cumulative IPC: 0.10326 (Simulation time: 0 hr 39 min 2 sec) 
Heartbeat CPU  0 instructions:  487000000 cycles: 3803654820 heartbeat IPC: 0.10266 cumulative IPC: 0.10326 (Simulation time: 0 hr 39 min 8 sec) 
Heartbeat CPU  0 instructions:  488000000 cycles: 3813424794 heartbeat IPC: 0.10235 cumulative IPC: 0.10326 (Simulation time: 0 hr 39 min 13 sec) 
Heartbeat CPU  0 instructions:  489000001 cycles: 3823203560 heartbeat IPC: 0.10226 cumulative IPC: 0.10326 (Simulation time: 0 hr 39 min 18 sec) 
Heartbeat CPU  0 instructions:  490000000 cycles: 3832965528 heartbeat IPC: 0.10244 cumulative IPC: 0.10326 (Simulation time: 0 hr 39 min 23 sec) 
Heartbeat CPU  0 instructions:  491000001 cycles: 3842759456 heartbeat IPC: 0.10210 cumulative IPC: 0.10325 (Simulation time: 0 hr 39 min 29 sec) 
Heartbeat CPU  0 instructions:  492000000 cycles: 3852527714 heartbeat IPC: 0.10237 cumulative IPC: 0.10325 (Simulation time: 0 hr 39 min 35 sec) 
Heartbeat CPU  0 instructions:  493000000 cycles: 3862289846 heartbeat IPC: 0.10244 cumulative IPC: 0.10325 (Simulation time: 0 hr 39 min 40 sec) 
Heartbeat CPU  0 instructions:  494000000 cycles: 3872040432 heartbeat IPC: 0.10256 cumulative IPC: 0.10325 (Simulation time: 0 hr 39 min 45 sec) 
Heartbeat CPU  0 instructions:  495000001 cycles: 3881807072 heartbeat IPC: 0.10239 cumulative IPC: 0.10324 (Simulation time: 0 hr 39 min 51 sec) 
Heartbeat CPU  0 instructions:  496000000 cycles: 3891598031 heartbeat IPC: 0.10213 cumulative IPC: 0.10324 (Simulation time: 0 hr 39 min 56 sec) 
Heartbeat CPU  0 instructions:  497000000 cycles: 3901322202 heartbeat IPC: 0.10284 cumulative IPC: 0.10324 (Simulation time: 0 hr 40 min 1 sec) 
Heartbeat CPU  0 instructions:  498000003 cycles: 3911057084 heartbeat IPC: 0.10272 cumulative IPC: 0.10324 (Simulation time: 0 hr 40 min 6 sec) 
Heartbeat CPU  0 instructions:  499000002 cycles: 3920826117 heartbeat IPC: 0.10236 cumulative IPC: 0.10324 (Simulation time: 0 hr 40 min 12 sec) 
Heartbeat CPU  0 instructions:  500000000 cycles: 3930602405 heartbeat IPC: 0.10229 cumulative IPC: 0.10323 (Simulation time: 0 hr 40 min 17 sec) 
Heartbeat CPU  0 instructions:  501000001 cycles: 3940350722 heartbeat IPC: 0.10258 cumulative IPC: 0.10323 (Simulation time: 0 hr 40 min 22 sec) 
Heartbeat CPU  0 instructions:  502000000 cycles: 3950097446 heartbeat IPC: 0.10260 cumulative IPC: 0.10323 (Simulation time: 0 hr 40 min 28 sec) 
Heartbeat CPU  0 instructions:  503000000 cycles: 3959935480 heartbeat IPC: 0.10165 cumulative IPC: 0.10323 (Simulation time: 0 hr 40 min 33 sec) 
Heartbeat CPU  0 instructions:  504000000 cycles: 3969764834 heartbeat IPC: 0.10174 cumulative IPC: 0.10322 (Simulation time: 0 hr 40 min 38 sec) 
Heartbeat CPU  0 instructions:  505000001 cycles: 3979598710 heartbeat IPC: 0.10169 cumulative IPC: 0.10322 (Simulation time: 0 hr 40 min 44 sec) 
Heartbeat CPU  0 instructions:  506000003 cycles: 3989415778 heartbeat IPC: 0.10186 cumulative IPC: 0.10322 (Simulation time: 0 hr 40 min 49 sec) 
Heartbeat CPU  0 instructions:  507000000 cycles: 3999222580 heartbeat IPC: 0.10197 cumulative IPC: 0.10321 (Simulation time: 0 hr 40 min 54 sec) 
Heartbeat CPU  0 instructions:  508000000 cycles: 4009015394 heartbeat IPC: 0.10212 cumulative IPC: 0.10321 (Simulation time: 0 hr 40 min 59 sec) 
Heartbeat CPU  0 instructions:  509000001 cycles: 4018779440 heartbeat IPC: 0.10242 cumulative IPC: 0.10321 (Simulation time: 0 hr 41 min 5 sec) 
Heartbeat CPU  0 instructions:  510000000 cycles: 4028558093 heartbeat IPC: 0.10226 cumulative IPC: 0.10321 (Simulation time: 0 hr 41 min 10 sec) 
Heartbeat CPU  0 instructions:  511000000 cycles: 4038349353 heartbeat IPC: 0.10213 cumulative IPC: 0.10320 (Simulation time: 0 hr 41 min 15 sec) 
Heartbeat CPU  0 instructions:  512000000 cycles: 4048133645 heartbeat IPC: 0.10220 cumulative IPC: 0.10320 (Simulation time: 0 hr 41 min 21 sec) 
Heartbeat CPU  0 instructions:  513000000 cycles: 4057971716 heartbeat IPC: 0.10165 cumulative IPC: 0.10320 (Simulation time: 0 hr 41 min 26 sec) 
Heartbeat CPU  0 instructions:  514000002 cycles: 4067795463 heartbeat IPC: 0.10179 cumulative IPC: 0.10319 (Simulation time: 0 hr 41 min 31 sec) 
Heartbeat CPU  0 instructions:  515000002 cycles: 4076789400 heartbeat IPC: 0.11119 cumulative IPC: 0.10321 (Simulation time: 0 hr 41 min 36 sec) 
Heartbeat CPU  0 instructions:  516000000 cycles: 4085861061 heartbeat IPC: 0.11023 cumulative IPC: 0.10323 (Simulation time: 0 hr 41 min 41 sec) 
Heartbeat CPU  0 instructions:  517000000 cycles: 4095577917 heartbeat IPC: 0.10291 cumulative IPC: 0.10323 (Simulation time: 0 hr 41 min 47 sec) 
Heartbeat CPU  0 instructions:  518000000 cycles: 4105314345 heartbeat IPC: 0.10271 cumulative IPC: 0.10323 (Simulation time: 0 hr 41 min 52 sec) 
Heartbeat CPU  0 instructions:  519000000 cycles: 4115042209 heartbeat IPC: 0.10280 cumulative IPC: 0.10322 (Simulation time: 0 hr 41 min 57 sec) 
Heartbeat CPU  0 instructions:  520000000 cycles: 4124105531 heartbeat IPC: 0.11033 cumulative IPC: 0.10324 (Simulation time: 0 hr 42 min 2 sec) 
Heartbeat CPU  0 instructions:  521000000 cycles: 4132684438 heartbeat IPC: 0.11656 cumulative IPC: 0.10327 (Simulation time: 0 hr 42 min 7 sec) 
Heartbeat CPU  0 instructions:  522000000 cycles: 4142455757 heartbeat IPC: 0.10234 cumulative IPC: 0.10327 (Simulation time: 0 hr 42 min 12 sec) 
Heartbeat CPU  0 instructions:  523000000 cycles: 4152200192 heartbeat IPC: 0.10262 cumulative IPC: 0.10326 (Simulation time: 0 hr 42 min 18 sec) 
Heartbeat CPU  0 instructions:  524000000 cycles: 4161958085 heartbeat IPC: 0.10248 cumulative IPC: 0.10326 (Simulation time: 0 hr 42 min 23 sec) 
Heartbeat CPU  0 instructions:  525000000 cycles: 4171735566 heartbeat IPC: 0.10228 cumulative IPC: 0.10326 (Simulation time: 0 hr 42 min 28 sec) 
Heartbeat CPU  0 instructions:  526000000 cycles: 4181485992 heartbeat IPC: 0.10256 cumulative IPC: 0.10326 (Simulation time: 0 hr 42 min 34 sec) 
Heartbeat CPU  0 instructions:  527000001 cycles: 4191254517 heartbeat IPC: 0.10237 cumulative IPC: 0.10326 (Simulation time: 0 hr 42 min 39 sec) 
Heartbeat CPU  0 instructions:  528000000 cycles: 4201055464 heartbeat IPC: 0.10203 cumulative IPC: 0.10325 (Simulation time: 0 hr 42 min 44 sec) 
Heartbeat CPU  0 instructions:  529000000 cycles: 4210784208 heartbeat IPC: 0.10279 cumulative IPC: 0.10325 (Simulation time: 0 hr 42 min 49 sec) 
Heartbeat CPU  0 instructions:  530000000 cycles: 4220542347 heartbeat IPC: 0.10248 cumulative IPC: 0.10325 (Simulation time: 0 hr 42 min 55 sec) 
Heartbeat CPU  0 instructions:  531000000 cycles: 4230301953 heartbeat IPC: 0.10246 cumulative IPC: 0.10325 (Simulation time: 0 hr 43 min 0 sec) 
Heartbeat CPU  0 instructions:  532000000 cycles: 4240091399 heartbeat IPC: 0.10215 cumulative IPC: 0.10325 (Simulation time: 0 hr 43 min 5 sec) 
Heartbeat CPU  0 instructions:  533000000 cycles: 4249853146 heartbeat IPC: 0.10244 cumulative IPC: 0.10324 (Simulation time: 0 hr 43 min 11 sec) 
Heartbeat CPU  0 instructions:  534000000 cycles: 4259595830 heartbeat IPC: 0.10264 cumulative IPC: 0.10324 (Simulation time: 0 hr 43 min 16 sec) 
Heartbeat CPU  0 instructions:  535000000 cycles: 4269341504 heartbeat IPC: 0.10261 cumulative IPC: 0.10324 (Simulation time: 0 hr 43 min 21 sec) 
Heartbeat CPU  0 instructions:  536000000 cycles: 4279129367 heartbeat IPC: 0.10217 cumulative IPC: 0.10324 (Simulation time: 0 hr 43 min 26 sec) 
Heartbeat CPU  0 instructions:  537000001 cycles: 4288877095 heartbeat IPC: 0.10259 cumulative IPC: 0.10324 (Simulation time: 0 hr 43 min 32 sec) 
Heartbeat CPU  0 instructions:  538000000 cycles: 4298618605 heartbeat IPC: 0.10265 cumulative IPC: 0.10324 (Simulation time: 0 hr 43 min 37 sec) 
Heartbeat CPU  0 instructions:  539000003 cycles: 4308402993 heartbeat IPC: 0.10220 cumulative IPC: 0.10323 (Simulation time: 0 hr 43 min 42 sec) 
Heartbeat CPU  0 instructions:  540000000 cycles: 4318233506 heartbeat IPC: 0.10172 cumulative IPC: 0.10323 (Simulation time: 0 hr 43 min 48 sec) 
Heartbeat CPU  0 instructions:  541000000 cycles: 4328046754 heartbeat IPC: 0.10190 cumulative IPC: 0.10323 (Simulation time: 0 hr 43 min 53 sec) 
Heartbeat CPU  0 instructions:  542000001 cycles: 4337893713 heartbeat IPC: 0.10155 cumulative IPC: 0.10322 (Simulation time: 0 hr 43 min 58 sec) 
Heartbeat CPU  0 instructions:  543000000 cycles: 4347706997 heartbeat IPC: 0.10190 cumulative IPC: 0.10322 (Simulation time: 0 hr 44 min 3 sec) 
Heartbeat CPU  0 instructions:  544000000 cycles: 4357515748 heartbeat IPC: 0.10195 cumulative IPC: 0.10322 (Simulation time: 0 hr 44 min 9 sec) 
Heartbeat CPU  0 instructions:  545000000 cycles: 4367285880 heartbeat IPC: 0.10235 cumulative IPC: 0.10322 (Simulation time: 0 hr 44 min 14 sec) 
Heartbeat CPU  0 instructions:  546000002 cycles: 4377045498 heartbeat IPC: 0.10246 cumulative IPC: 0.10321 (Simulation time: 0 hr 44 min 19 sec) 
Heartbeat CPU  0 instructions:  547000000 cycles: 4386837920 heartbeat IPC: 0.10212 cumulative IPC: 0.10321 (Simulation time: 0 hr 44 min 25 sec) 
Heartbeat CPU  0 instructions:  548000000 cycles: 4396610949 heartbeat IPC: 0.10232 cumulative IPC: 0.10321 (Simulation time: 0 hr 44 min 30 sec) 
Heartbeat CPU  0 instructions:  549000000 cycles: 4406437825 heartbeat IPC: 0.10176 cumulative IPC: 0.10321 (Simulation time: 0 hr 44 min 35 sec) 
Heartbeat CPU  0 instructions:  550000000 cycles: 4416274854 heartbeat IPC: 0.10166 cumulative IPC: 0.10320 (Simulation time: 0 hr 44 min 41 sec) 
Heartbeat CPU  0 instructions:  551000000 cycles: 4426097940 heartbeat IPC: 0.10180 cumulative IPC: 0.10320 (Simulation time: 0 hr 44 min 46 sec) 
Heartbeat CPU  0 instructions:  552000000 cycles: 4434390100 heartbeat IPC: 0.12060 cumulative IPC: 0.10323 (Simulation time: 0 hr 44 min 51 sec) 
Heartbeat CPU  0 instructions:  553000001 cycles: 4444122200 heartbeat IPC: 0.10275 cumulative IPC: 0.10323 (Simulation time: 0 hr 44 min 56 sec) 
Heartbeat CPU  0 instructions:  554000002 cycles: 4453860444 heartbeat IPC: 0.10269 cumulative IPC: 0.10323 (Simulation time: 0 hr 45 min 1 sec) 
Heartbeat CPU  0 instructions:  555000000 cycles: 4463570738 heartbeat IPC: 0.10298 cumulative IPC: 0.10323 (Simulation time: 0 hr 45 min 6 sec) 
Heartbeat CPU  0 instructions:  556000000 cycles: 4473314362 heartbeat IPC: 0.10263 cumulative IPC: 0.10323 (Simulation time: 0 hr 45 min 12 sec) 
Heartbeat CPU  0 instructions:  557000003 cycles: 4480206418 heartbeat IPC: 0.14510 cumulative IPC: 0.10329 (Simulation time: 0 hr 45 min 16 sec) 
Heartbeat CPU  0 instructions:  558000003 cycles: 4484007629 heartbeat IPC: 0.26307 cumulative IPC: 0.10343 (Simulation time: 0 hr 45 min 19 sec) 
Heartbeat CPU  0 instructions:  559000000 cycles: 4487802905 heartbeat IPC: 0.26348 cumulative IPC: 0.10357 (Simulation time: 0 hr 45 min 21 sec) 
Heartbeat CPU  0 instructions:  560000000 cycles: 4493679340 heartbeat IPC: 0.17017 cumulative IPC: 0.10366 (Simulation time: 0 hr 45 min 25 sec) 
Heartbeat CPU  0 instructions:  561000000 cycles: 4503456494 heartbeat IPC: 0.10228 cumulative IPC: 0.10365 (Simulation time: 0 hr 45 min 30 sec) 
Heartbeat CPU  0 instructions:  562000000 cycles: 4513217718 heartbeat IPC: 0.10245 cumulative IPC: 0.10365 (Simulation time: 0 hr 45 min 35 sec) 
Heartbeat CPU  0 instructions:  563000001 cycles: 4522972973 heartbeat IPC: 0.10251 cumulative IPC: 0.10365 (Simulation time: 0 hr 45 min 40 sec) 
Heartbeat CPU  0 instructions:  564000000 cycles: 4532752975 heartbeat IPC: 0.10225 cumulative IPC: 0.10364 (Simulation time: 0 hr 45 min 46 sec) 
Heartbeat CPU  0 instructions:  565000001 cycles: 4542553005 heartbeat IPC: 0.10204 cumulative IPC: 0.10364 (Simulation time: 0 hr 45 min 51 sec) 
Heartbeat CPU  0 instructions:  566000002 cycles: 4552327100 heartbeat IPC: 0.10231 cumulative IPC: 0.10364 (Simulation time: 0 hr 45 min 56 sec) 
Heartbeat CPU  0 instructions:  567000000 cycles: 4562127715 heartbeat IPC: 0.10203 cumulative IPC: 0.10363 (Simulation time: 0 hr 46 min 2 sec) 
Heartbeat CPU  0 instructions:  568000000 cycles: 4571905398 heartbeat IPC: 0.10227 cumulative IPC: 0.10363 (Simulation time: 0 hr 46 min 7 sec) 
Heartbeat CPU  0 instructions:  569000000 cycles: 4581674284 heartbeat IPC: 0.10237 cumulative IPC: 0.10363 (Simulation time: 0 hr 46 min 12 sec) 
Heartbeat CPU  0 instructions:  570000000 cycles: 4591449410 heartbeat IPC: 0.10230 cumulative IPC: 0.10363 (Simulation time: 0 hr 46 min 17 sec) 
Heartbeat CPU  0 instructions:  571000001 cycles: 4601219742 heartbeat IPC: 0.10235 cumulative IPC: 0.10362 (Simulation time: 0 hr 46 min 23 sec) 
Heartbeat CPU  0 instructions:  572000000 cycles: 4611037890 heartbeat IPC: 0.10185 cumulative IPC: 0.10362 (Simulation time: 0 hr 46 min 28 sec) 
Heartbeat CPU  0 instructions:  573000003 cycles: 4620780197 heartbeat IPC: 0.10265 cumulative IPC: 0.10362 (Simulation time: 0 hr 46 min 33 sec) 
Heartbeat CPU  0 instructions:  574000000 cycles: 4630536624 heartbeat IPC: 0.10250 cumulative IPC: 0.10362 (Simulation time: 0 hr 46 min 38 sec) 
Heartbeat CPU  0 instructions:  575000003 cycles: 4640326654 heartbeat IPC: 0.10215 cumulative IPC: 0.10361 (Simulation time: 0 hr 46 min 44 sec) 
Heartbeat CPU  0 instructions:  576000000 cycles: 4650118840 heartbeat IPC: 0.10212 cumulative IPC: 0.10361 (Simulation time: 0 hr 46 min 49 sec) 
Heartbeat CPU  0 instructions:  577000000 cycles: 4659892313 heartbeat IPC: 0.10232 cumulative IPC: 0.10361 (Simulation time: 0 hr 46 min 54 sec) 
Heartbeat CPU  0 instructions:  578000000 cycles: 4669638859 heartbeat IPC: 0.10260 cumulative IPC: 0.10360 (Simulation time: 0 hr 47 min 0 sec) 
Heartbeat CPU  0 instructions:  579000000 cycles: 4679486350 heartbeat IPC: 0.10155 cumulative IPC: 0.10360 (Simulation time: 0 hr 47 min 5 sec) 
Heartbeat CPU  0 instructions:  580000000 cycles: 4689324109 heartbeat IPC: 0.10165 cumulative IPC: 0.10360 (Simulation time: 0 hr 47 min 10 sec) 
Heartbeat CPU  0 instructions:  581000001 cycles: 4699168325 heartbeat IPC: 0.10158 cumulative IPC: 0.10359 (Simulation time: 0 hr 47 min 16 sec) 
Heartbeat CPU  0 instructions:  582000001 cycles: 4709012624 heartbeat IPC: 0.10158 cumulative IPC: 0.10359 (Simulation time: 0 hr 47 min 21 sec) 
Heartbeat CPU  0 instructions:  583000000 cycles: 4718839844 heartbeat IPC: 0.10176 cumulative IPC: 0.10358 (Simulation time: 0 hr 47 min 26 sec) 
Heartbeat CPU  0 instructions:  584000000 cycles: 4728631541 heartbeat IPC: 0.10213 cumulative IPC: 0.10358 (Simulation time: 0 hr 47 min 31 sec) 
Heartbeat CPU  0 instructions:  585000000 cycles: 4738415957 heartbeat IPC: 0.10220 cumulative IPC: 0.10358 (Simulation time: 0 hr 47 min 37 sec) 
Heartbeat CPU  0 instructions:  586000002 cycles: 4748212466 heartbeat IPC: 0.10208 cumulative IPC: 0.10357 (Simulation time: 0 hr 47 min 42 sec) 
Heartbeat CPU  0 instructions:  587000001 cycles: 4758016199 heartbeat IPC: 0.10200 cumulative IPC: 0.10357 (Simulation time: 0 hr 47 min 47 sec) 
Heartbeat CPU  0 instructions:  588000000 cycles: 4767812484 heartbeat IPC: 0.10208 cumulative IPC: 0.10357 (Simulation time: 0 hr 47 min 53 sec) 
Heartbeat CPU  0 instructions:  589000000 cycles: 4777674362 heartbeat IPC: 0.10140 cumulative IPC: 0.10356 (Simulation time: 0 hr 47 min 58 sec) 
Heartbeat CPU  0 instructions:  590000001 cycles: 4787507082 heartbeat IPC: 0.10170 cumulative IPC: 0.10356 (Simulation time: 0 hr 48 min 3 sec) 
Heartbeat CPU  0 instructions:  591000000 cycles: 4797113495 heartbeat IPC: 0.10410 cumulative IPC: 0.10356 (Simulation time: 0 hr 48 min 9 sec) 
Heartbeat CPU  0 instructions:  592000000 cycles: 4805988791 heartbeat IPC: 0.11267 cumulative IPC: 0.10358 (Simulation time: 0 hr 48 min 14 sec) 
Heartbeat CPU  0 instructions:  593000000 cycles: 4815720892 heartbeat IPC: 0.10275 cumulative IPC: 0.10358 (Simulation time: 0 hr 48 min 19 sec) 
Heartbeat CPU  0 instructions:  594000000 cycles: 4825466179 heartbeat IPC: 0.10261 cumulative IPC: 0.10357 (Simulation time: 0 hr 48 min 24 sec) 
Heartbeat CPU  0 instructions:  595000001 cycles: 4835160619 heartbeat IPC: 0.10315 cumulative IPC: 0.10357 (Simulation time: 0 hr 48 min 30 sec) 
Heartbeat CPU  0 instructions:  596000000 cycles: 4844684059 heartbeat IPC: 0.10500 cumulative IPC: 0.10358 (Simulation time: 0 hr 48 min 35 sec) 
Heartbeat CPU  0 instructions:  597000001 cycles: 4853939797 heartbeat IPC: 0.10804 cumulative IPC: 0.10358 (Simulation time: 0 hr 48 min 40 sec) 
Heartbeat CPU  0 instructions:  598000000 cycles: 4863709278 heartbeat IPC: 0.10236 cumulative IPC: 0.10358 (Simulation time: 0 hr 48 min 46 sec) 
Heartbeat CPU  0 instructions:  599000003 cycles: 4873440850 heartbeat IPC: 0.10276 cumulative IPC: 0.10358 (Simulation time: 0 hr 48 min 51 sec) 
Heartbeat CPU  0 instructions:  600000000 cycles: 4883192706 heartbeat IPC: 0.10254 cumulative IPC: 0.10358 (Simulation time: 0 hr 48 min 56 sec) 
Finished CPU 0 instructions: 500000000 cycles: 4827281312 cumulative IPC: 0.10358 (Simulation time: 0 hr 48 min 56 sec) 

ChampSim completed all CPUs

[ROI Statistics]
Core_0_instructions 500000000
Core_0_cycles 4827281312
Core_0_IPC 0.10358

Core_0_branch_prediction_accuracy 99.53911
Core_0_branch_MPKI 1.62160
Core_0_average_ROB_occupancy_at_mispredict 196.75649

Core_0_L1D_total_access 79602714
Core_0_L1D_total_hit 43624147
Core_0_L1D_total_miss 35978567
Core_0_L1D_loads 71904165
Core_0_L1D_load_hit 35945998
Core_0_L1D_load_miss 35958167
Core_0_L1D_RFOs 7698549
Core_0_L1D_RFO_hit 7678149
Core_0_L1D_RFO_miss 20400
Core_0_L1D_prefetches 0
Core_0_L1D_prefetch_hit 0
Core_0_L1D_prefetch_miss 0
Core_0_L1D_writebacks 0
Core_0_L1D_writeback_hit 0
Core_0_L1D_writeback_miss 0
Core_0_L1D_prefetch_requested 0
Core_0_L1D_prefetch_issued 0
Core_0_L1D_prefetch_useful 0
Core_0_L1D_prefetch_useless 0
Core_0_L1D_prefetch_late 0
Core_0_L1D_average_miss_latency 115.46365

Core_0_L1I_total_access 177917031
Core_0_L1I_total_hit 177916942
Core_0_L1I_total_miss 89
Core_0_L1I_loads 177917031
Core_0_L1I_load_hit 177916942
Core_0_L1I_load_miss 89
Core_0_L1I_RFOs 0
Core_0_L1I_RFO_hit 0
Core_0_L1I_RFO_miss 0
Core_0_L1I_prefetches 0
Core_0_L1I_prefetch_hit 0
Core_0_L1I_prefetch_miss 0
Core_0_L1I_writebacks 0
Core_0_L1I_writeback_hit 0
Core_0_L1I_writeback_miss 0
Core_0_L1I_prefetch_requested 0
Core_0_L1I_prefetch_issued 0
Core_0_L1I_prefetch_useful 0
Core_0_L1I_prefetch_useless 0
Core_0_L1I_prefetch_late 0
Core_0_L1I_average_miss_latency 214.93258

Core_0_L2C_total_access 36111881
Core_0_L2C_total_hit 1364650
Core_0_L2C_total_miss 34747231
Core_0_L2C_loads 35958256
Core_0_L2C_load_hit 1228074
Core_0_L2C_load_miss 34730182
Core_0_L2C_RFOs 20400
Core_0_L2C_RFO_hit 3366
Core_0_L2C_RFO_miss 17034
Core_0_L2C_prefetches 0
Core_0_L2C_prefetch_hit 0
Core_0_L2C_prefetch_miss 0
Core_0_L2C_writebacks 133225
Core_0_L2C_writeback_hit 133210
Core_0_L2C_writeback_miss 15
Core_0_L2C_prefetch_requested 0
Core_0_L2C_prefetch_issued 0
Core_0_L2C_prefetch_useful 0
Core_0_L2C_prefetch_useless 0
Core_0_L2C_prefetch_late 0
Core_0_L2C_average_miss_latency 105.04768

Core_0_LLC_total_access 34807000
Core_0_LLC_total_hit 454466
Core_0_LLC_total_miss 34352534
Core_0_LLC_loads 34730182
Core_0_LLC_load_hit 386730
Core_0_LLC_load_miss 34343452
Core_0_LLC_RFOs 17034
Core_0_LLC_RFO_hit 14451
Core_0_LLC_RFO_miss 2583
Core_0_LLC_prefetches 0
Core_0_LLC_prefetch_hit 0
Core_0_LLC_prefetch_miss 0
Core_0_LLC_writebacks 59784
Core_0_LLC_writeback_hit 53285
Core_0_LLC_writeback_miss 6499
Core_0_LLC_prefetch_requested 0
Core_0_LLC_prefetch_issued 0
Core_0_LLC_prefetch_useful 0
Core_0_LLC_prefetch_useless 0
Core_0_LLC_prefetch_late 0
Core_0_LLC_average_miss_latency 75.90374

Core_0_major_page_fault 0
Core_0_minor_page_fault 54920

Requested: 0
Issued: 0
Useful: 0
Late: 0
Fill: 0
Channel_0_RQ_row_buffer_hit 32703368
Channel_0_RQ_row_buffer_miss 1642667
Channel_0_WQ_row_buffer_hit 1234
Channel_0_WQ_row_buffer_miss 4670
Channel_0_WQ_full 0
Channel_0_dbus_congested 168067

avg_congested_cycle 11
