*************************************************
   ChampSim Multicore Out-of-Order Simulator
   Last compiled: Dec 15 2020 16:38:25
*************************************************

trace_0 traces/482.sphinx3-1100B.champsimtrace.xz
CPU 0 L2C GHB prefetcher
Initialize SHIP state
warmup_instructions 100000000
simulation_instructions 500000000
champsim_seed 260

num_cpus 1
cpu_freq 4000
dram_io_freq 2400
page_size 4096
block_size 64
max_read_per_cycle 8
max_fill_per_cycle 1
dram_channels 1
dram_ranks 1
dram_banks 8
dram_rows 65536
dram_columns 128
dram_row_size 8
dram_size 4096
dram_pages 1048576

fetch_width 6
decode_width 6
exec_width 4
lq_width 2
sq_width 2
retire_width 4
scheduler_size 128
branch_mispredict_penalty 20
rob_size 256
lq_size 72
sq_size 56
num_instr_destinations_sparc 4
num_instr_destinations 2
num_instr_sources 4

itlb_set 16
itlb_way 8
itlb_rq_size 16
itlb_wq_size 16
itlb_pq_size 0
itlb_mshr_size 8
itlb_latency 1

dtlb_set 16
dtlb_way 4
dtlb_rq_size 16
dtlb_wq_size 16
dtlb_pq_size 0
dtlb_mshr_size 8
dtlb_latency 1

stlb_set 128
stlb_way 12
stlb_rq_size 32
stlb_wq_size 32
stlb_pq_size 0
stlb_mshr_size 16
stlb_latency 8

l1i_size 32
l1i_set 64
l1i_way 8
l1i_rq_size 64
l1i_wq_size 64
l1i_pq_size 8
l1i_mshr_size 8
l1i_latency 1

l1d_size 32
l1d_set 64
l1d_way 8
l1d_rq_size 64
l1d_wq_size 64
l1d_pq_size 8
l1d_mshr_size 16
l1d_latency 4

l2c_size 512
l2c_set 1024
l2c_way 8
l2c_rq_size 32
l2c_wq_size 32
l2c_pq_size 16
l2c_mshr_size 32
l2c_latency 10

llc_size 2048
llc_set 2048
llc_way 16
llc_rq_size 32
llc_wq_size 32
llc_pq_size 32
llc_mshr_size 64
llc_latency 20

dram_channel_width 8
dram_wq_size 64
dram_rq_size 64
tRP 15
tRCD 15
tCAS 12.5
dram_dbus_turn_around_time 30
dram_write_high_wm 56
dram_write_low_wm 48
min_dram_writes_per_switch 16
dram_mtps 2400
dram_dbus_return_time 13


Heartbeat CPU  0 instructions:    1000001 cycles:     367573 heartbeat IPC: 2.72055 cumulative IPC: 2.72055 (Simulation time: 0 hr 0 min 1 sec) 
Heartbeat CPU  0 instructions:    2000003 cycles:     795094 heartbeat IPC: 2.33907 cumulative IPC: 2.51543 (Simulation time: 0 hr 0 min 3 sec) 
Heartbeat CPU  0 instructions:    3000001 cycles:    1253031 heartbeat IPC: 2.18370 cumulative IPC: 2.39420 (Simulation time: 0 hr 0 min 5 sec) 
Heartbeat CPU  0 instructions:    4000000 cycles:    1735807 heartbeat IPC: 2.07135 cumulative IPC: 2.30440 (Simulation time: 0 hr 0 min 6 sec) 
Heartbeat CPU  0 instructions:    5000000 cycles:    2178361 heartbeat IPC: 2.25961 cumulative IPC: 2.29530 (Simulation time: 0 hr 0 min 8 sec) 
Heartbeat CPU  0 instructions:    6000001 cycles:    2545492 heartbeat IPC: 2.72383 cumulative IPC: 2.35711 (Simulation time: 0 hr 0 min 10 sec) 
Heartbeat CPU  0 instructions:    7000000 cycles:    2936465 heartbeat IPC: 2.55772 cumulative IPC: 2.38382 (Simulation time: 0 hr 0 min 12 sec) 
Heartbeat CPU  0 instructions:    8000000 cycles:    3394947 heartbeat IPC: 2.18111 cumulative IPC: 2.35644 (Simulation time: 0 hr 0 min 13 sec) 
Heartbeat CPU  0 instructions:    9000000 cycles:    3852861 heartbeat IPC: 2.18382 cumulative IPC: 2.33593 (Simulation time: 0 hr 0 min 15 sec) 
Heartbeat CPU  0 instructions:   10000000 cycles:    4342960 heartbeat IPC: 2.04040 cumulative IPC: 2.30258 (Simulation time: 0 hr 0 min 17 sec) 
Heartbeat CPU  0 instructions:   11000001 cycles:    4715179 heartbeat IPC: 2.68659 cumulative IPC: 2.33289 (Simulation time: 0 hr 0 min 18 sec) 
Heartbeat CPU  0 instructions:   12000000 cycles:    5082257 heartbeat IPC: 2.72421 cumulative IPC: 2.36116 (Simulation time: 0 hr 0 min 20 sec) 
Heartbeat CPU  0 instructions:   13000001 cycles:    5531525 heartbeat IPC: 2.22585 cumulative IPC: 2.35017 (Simulation time: 0 hr 0 min 22 sec) 
Heartbeat CPU  0 instructions:   14000000 cycles:    5989503 heartbeat IPC: 2.18351 cumulative IPC: 2.33742 (Simulation time: 0 hr 0 min 24 sec) 
Heartbeat CPU  0 instructions:   15000000 cycles:    6471829 heartbeat IPC: 2.07329 cumulative IPC: 2.31774 (Simulation time: 0 hr 0 min 25 sec) 
Heartbeat CPU  0 instructions:   16000000 cycles:    6881685 heartbeat IPC: 2.43988 cumulative IPC: 2.32501 (Simulation time: 0 hr 0 min 27 sec) 
Heartbeat CPU  0 instructions:   17000003 cycles:    7248735 heartbeat IPC: 2.72443 cumulative IPC: 2.34524 (Simulation time: 0 hr 0 min 29 sec) 
Heartbeat CPU  0 instructions:   18000003 cycles:    7660758 heartbeat IPC: 2.42705 cumulative IPC: 2.34964 (Simulation time: 0 hr 0 min 31 sec) 
Heartbeat CPU  0 instructions:   19000003 cycles:    8118712 heartbeat IPC: 2.18363 cumulative IPC: 2.34027 (Simulation time: 0 hr 0 min 32 sec) 
Heartbeat CPU  0 instructions:   20000000 cycles:    8587079 heartbeat IPC: 2.13507 cumulative IPC: 2.32908 (Simulation time: 0 hr 0 min 34 sec) 
Heartbeat CPU  0 instructions:   21000002 cycles:    9045933 heartbeat IPC: 2.17935 cumulative IPC: 2.32149 (Simulation time: 0 hr 0 min 36 sec) 
Heartbeat CPU  0 instructions:   22000003 cycles:    9412977 heartbeat IPC: 2.72447 cumulative IPC: 2.33720 (Simulation time: 0 hr 0 min 37 sec) 
Heartbeat CPU  0 instructions:   23000001 cycles:    9793571 heartbeat IPC: 2.62747 cumulative IPC: 2.34848 (Simulation time: 0 hr 0 min 39 sec) 
Heartbeat CPU  0 instructions:   24000000 cycles:   10248922 heartbeat IPC: 2.19611 cumulative IPC: 2.34171 (Simulation time: 0 hr 0 min 41 sec) 
Heartbeat CPU  0 instructions:   25000002 cycles:   10704440 heartbeat IPC: 2.19531 cumulative IPC: 2.33548 (Simulation time: 0 hr 0 min 42 sec) 
Heartbeat CPU  0 instructions:   26000002 cycles:   11183109 heartbeat IPC: 2.08913 cumulative IPC: 2.32493 (Simulation time: 0 hr 0 min 44 sec) 
Heartbeat CPU  0 instructions:   27000001 cycles:   11576129 heartbeat IPC: 2.54440 cumulative IPC: 2.33239 (Simulation time: 0 hr 0 min 46 sec) 
Heartbeat CPU  0 instructions:   28000000 cycles:   11943011 heartbeat IPC: 2.72567 cumulative IPC: 2.34447 (Simulation time: 0 hr 0 min 48 sec) 
Heartbeat CPU  0 instructions:   29000001 cycles:   12379426 heartbeat IPC: 2.29140 cumulative IPC: 2.34260 (Simulation time: 0 hr 0 min 49 sec) 
Heartbeat CPU  0 instructions:   30000003 cycles:   12832994 heartbeat IPC: 2.20475 cumulative IPC: 2.33772 (Simulation time: 0 hr 0 min 51 sec) 
Heartbeat CPU  0 instructions:   31000002 cycles:   13287075 heartbeat IPC: 2.20225 cumulative IPC: 2.33309 (Simulation time: 0 hr 0 min 52 sec) 
Heartbeat CPU  0 instructions:   32000000 cycles:   13770212 heartbeat IPC: 2.06980 cumulative IPC: 2.32386 (Simulation time: 0 hr 0 min 54 sec) 
Heartbeat CPU  0 instructions:   33000003 cycles:   14171283 heartbeat IPC: 2.49333 cumulative IPC: 2.32865 (Simulation time: 0 hr 0 min 56 sec) 
Heartbeat CPU  0 instructions:   34000003 cycles:   14538232 heartbeat IPC: 2.72517 cumulative IPC: 2.33866 (Simulation time: 0 hr 0 min 57 sec) 
Heartbeat CPU  0 instructions:   35000000 cycles:   14965452 heartbeat IPC: 2.34071 cumulative IPC: 2.33872 (Simulation time: 0 hr 0 min 59 sec) 
Heartbeat CPU  0 instructions:   36000000 cycles:   15419237 heartbeat IPC: 2.20369 cumulative IPC: 2.33475 (Simulation time: 0 hr 1 min 1 sec) 
Heartbeat CPU  0 instructions:   37000000 cycles:   15873247 heartbeat IPC: 2.20259 cumulative IPC: 2.33097 (Simulation time: 0 hr 1 min 2 sec) 
Heartbeat CPU  0 instructions:   38000003 cycles:   16360948 heartbeat IPC: 2.05044 cumulative IPC: 2.32260 (Simulation time: 0 hr 1 min 4 sec) 
Heartbeat CPU  0 instructions:   39000001 cycles:   16768314 heartbeat IPC: 2.45479 cumulative IPC: 2.32582 (Simulation time: 0 hr 1 min 6 sec) 
Heartbeat CPU  0 instructions:   40000000 cycles:   17135325 heartbeat IPC: 2.72471 cumulative IPC: 2.33436 (Simulation time: 0 hr 1 min 8 sec) 
Heartbeat CPU  0 instructions:   41000003 cycles:   17555549 heartbeat IPC: 2.37969 cumulative IPC: 2.33544 (Simulation time: 0 hr 1 min 9 sec) 
Heartbeat CPU  0 instructions:   42000000 cycles:   18013514 heartbeat IPC: 2.18357 cumulative IPC: 2.33158 (Simulation time: 0 hr 1 min 11 sec) 
Heartbeat CPU  0 instructions:   43000001 cycles:   18469890 heartbeat IPC: 2.19118 cumulative IPC: 2.32811 (Simulation time: 0 hr 1 min 13 sec) 
Heartbeat CPU  0 instructions:   44000000 cycles:   18960087 heartbeat IPC: 2.03999 cumulative IPC: 2.32066 (Simulation time: 0 hr 1 min 14 sec) 
Heartbeat CPU  0 instructions:   45000002 cycles:   19372172 heartbeat IPC: 2.42669 cumulative IPC: 2.32292 (Simulation time: 0 hr 1 min 16 sec) 
Heartbeat CPU  0 instructions:   46000000 cycles:   19739226 heartbeat IPC: 2.72439 cumulative IPC: 2.33039 (Simulation time: 0 hr 1 min 18 sec) 
Heartbeat CPU  0 instructions:   47000002 cycles:   20152360 heartbeat IPC: 2.42053 cumulative IPC: 2.33223 (Simulation time: 0 hr 1 min 20 sec) 
Heartbeat CPU  0 instructions:   48000000 cycles:   20612062 heartbeat IPC: 2.17532 cumulative IPC: 2.32873 (Simulation time: 0 hr 1 min 21 sec) 
Heartbeat CPU  0 instructions:   49000003 cycles:   21068832 heartbeat IPC: 2.18929 cumulative IPC: 2.32571 (Simulation time: 0 hr 1 min 23 sec) 
Heartbeat CPU  0 instructions:   50000003 cycles:   21579511 heartbeat IPC: 1.95818 cumulative IPC: 2.31701 (Simulation time: 0 hr 1 min 25 sec) 
Heartbeat CPU  0 instructions:   51000002 cycles:   22041558 heartbeat IPC: 2.16428 cumulative IPC: 2.31381 (Simulation time: 0 hr 1 min 26 sec) 
Heartbeat CPU  0 instructions:   52000000 cycles:   22414664 heartbeat IPC: 2.68020 cumulative IPC: 2.31991 (Simulation time: 0 hr 1 min 28 sec) 
Heartbeat CPU  0 instructions:   53000001 cycles:   22781795 heartbeat IPC: 2.72383 cumulative IPC: 2.32642 (Simulation time: 0 hr 1 min 30 sec) 
Heartbeat CPU  0 instructions:   54000001 cycles:   23231464 heartbeat IPC: 2.22386 cumulative IPC: 2.32443 (Simulation time: 0 hr 1 min 32 sec) 
Heartbeat CPU  0 instructions:   55000001 cycles:   23685010 heartbeat IPC: 2.20485 cumulative IPC: 2.32214 (Simulation time: 0 hr 1 min 33 sec) 
Heartbeat CPU  0 instructions:   56000000 cycles:   24142049 heartbeat IPC: 2.18799 cumulative IPC: 2.31960 (Simulation time: 0 hr 1 min 35 sec) 
Heartbeat CPU  0 instructions:   57000003 cycles:   24627254 heartbeat IPC: 2.06099 cumulative IPC: 2.31451 (Simulation time: 0 hr 1 min 36 sec) 
Heartbeat CPU  0 instructions:   58000001 cycles:   25020661 heartbeat IPC: 2.54189 cumulative IPC: 2.31808 (Simulation time: 0 hr 1 min 38 sec) 
Heartbeat CPU  0 instructions:   59000001 cycles:   25387664 heartbeat IPC: 2.72477 cumulative IPC: 2.32396 (Simulation time: 0 hr 1 min 40 sec) 
Heartbeat CPU  0 instructions:   60000000 cycles:   25827174 heartbeat IPC: 2.27526 cumulative IPC: 2.32313 (Simulation time: 0 hr 1 min 42 sec) 
Heartbeat CPU  0 instructions:   61000000 cycles:   26283154 heartbeat IPC: 2.19308 cumulative IPC: 2.32088 (Simulation time: 0 hr 1 min 43 sec) 
Heartbeat CPU  0 instructions:   62000000 cycles:   26740761 heartbeat IPC: 2.18528 cumulative IPC: 2.31856 (Simulation time: 0 hr 1 min 45 sec) 
Heartbeat CPU  0 instructions:   63000000 cycles:   27227984 heartbeat IPC: 2.05245 cumulative IPC: 2.31380 (Simulation time: 0 hr 1 min 46 sec) 
Heartbeat CPU  0 instructions:   64000000 cycles:   27629910 heartbeat IPC: 2.48802 cumulative IPC: 2.31633 (Simulation time: 0 hr 1 min 48 sec) 
Heartbeat CPU  0 instructions:   65000000 cycles:   27997023 heartbeat IPC: 2.72396 cumulative IPC: 2.32168 (Simulation time: 0 hr 1 min 50 sec) 
Heartbeat CPU  0 instructions:   66000001 cycles:   28422328 heartbeat IPC: 2.35126 cumulative IPC: 2.32212 (Simulation time: 0 hr 1 min 52 sec) 
Heartbeat CPU  0 instructions:   67000003 cycles:   28882050 heartbeat IPC: 2.17523 cumulative IPC: 2.31978 (Simulation time: 0 hr 1 min 53 sec) 
Heartbeat CPU  0 instructions:   68000000 cycles:   29336187 heartbeat IPC: 2.20197 cumulative IPC: 2.31796 (Simulation time: 0 hr 1 min 55 sec) 
Heartbeat CPU  0 instructions:   69000001 cycles:   29823099 heartbeat IPC: 2.05376 cumulative IPC: 2.31364 (Simulation time: 0 hr 1 min 56 sec) 
Heartbeat CPU  0 instructions:   70000001 cycles:   30232187 heartbeat IPC: 2.44446 cumulative IPC: 2.31541 (Simulation time: 0 hr 1 min 58 sec) 
Heartbeat CPU  0 instructions:   71000001 cycles:   30599373 heartbeat IPC: 2.72342 cumulative IPC: 2.32031 (Simulation time: 0 hr 2 min 0 sec) 
Heartbeat CPU  0 instructions:   72000000 cycles:   31015112 heartbeat IPC: 2.40535 cumulative IPC: 2.32145 (Simulation time: 0 hr 2 min 2 sec) 
Heartbeat CPU  0 instructions:   73000000 cycles:   31472008 heartbeat IPC: 2.18868 cumulative IPC: 2.31952 (Simulation time: 0 hr 2 min 3 sec) 
Heartbeat CPU  0 instructions:   74000002 cycles:   31927496 heartbeat IPC: 2.19545 cumulative IPC: 2.31775 (Simulation time: 0 hr 2 min 5 sec) 
Heartbeat CPU  0 instructions:   75000002 cycles:   32416005 heartbeat IPC: 2.04705 cumulative IPC: 2.31367 (Simulation time: 0 hr 2 min 7 sec) 
Heartbeat CPU  0 instructions:   76000000 cycles:   32834645 heartbeat IPC: 2.38868 cumulative IPC: 2.31463 (Simulation time: 0 hr 2 min 9 sec) 
Heartbeat CPU  0 instructions:   77000003 cycles:   33201784 heartbeat IPC: 2.72377 cumulative IPC: 2.31915 (Simulation time: 0 hr 2 min 10 sec) 
Heartbeat CPU  0 instructions:   78000002 cycles:   33610004 heartbeat IPC: 2.44966 cumulative IPC: 2.32074 (Simulation time: 0 hr 2 min 12 sec) 
Heartbeat CPU  0 instructions:   79000000 cycles:   34065468 heartbeat IPC: 2.19556 cumulative IPC: 2.31906 (Simulation time: 0 hr 2 min 14 sec) 
Heartbeat CPU  0 instructions:   80000000 cycles:   34522624 heartbeat IPC: 2.18744 cumulative IPC: 2.31732 (Simulation time: 0 hr 2 min 16 sec) 
Heartbeat CPU  0 instructions:   81000001 cycles:   34981659 heartbeat IPC: 2.17849 cumulative IPC: 2.31550 (Simulation time: 0 hr 2 min 17 sec) 
Heartbeat CPU  0 instructions:   82000001 cycles:   35468312 heartbeat IPC: 2.05485 cumulative IPC: 2.31192 (Simulation time: 0 hr 2 min 19 sec) 
Heartbeat CPU  0 instructions:   83000001 cycles:   35839778 heartbeat IPC: 2.69204 cumulative IPC: 2.31586 (Simulation time: 0 hr 2 min 21 sec) 
Heartbeat CPU  0 instructions:   84000000 cycles:   36207717 heartbeat IPC: 2.71784 cumulative IPC: 2.31995 (Simulation time: 0 hr 2 min 22 sec) 
Heartbeat CPU  0 instructions:   85000003 cycles:   36663481 heartbeat IPC: 2.19412 cumulative IPC: 2.31838 (Simulation time: 0 hr 2 min 24 sec) 
Heartbeat CPU  0 instructions:   86000001 cycles:   37119116 heartbeat IPC: 2.19473 cumulative IPC: 2.31687 (Simulation time: 0 hr 2 min 26 sec) 
Heartbeat CPU  0 instructions:   87000003 cycles:   37576446 heartbeat IPC: 2.18661 cumulative IPC: 2.31528 (Simulation time: 0 hr 2 min 27 sec) 
Heartbeat CPU  0 instructions:   88000000 cycles:   38066044 heartbeat IPC: 2.04249 cumulative IPC: 2.31177 (Simulation time: 0 hr 2 min 29 sec) 
Heartbeat CPU  0 instructions:   89000002 cycles:   38469243 heartbeat IPC: 2.48017 cumulative IPC: 2.31354 (Simulation time: 0 hr 2 min 31 sec) 
Heartbeat CPU  0 instructions:   90000002 cycles:   38836384 heartbeat IPC: 2.72375 cumulative IPC: 2.31741 (Simulation time: 0 hr 2 min 32 sec) 
Heartbeat CPU  0 instructions:   91000002 cycles:   39257383 heartbeat IPC: 2.37530 cumulative IPC: 2.31804 (Simulation time: 0 hr 2 min 34 sec) 
Heartbeat CPU  0 instructions:   92000000 cycles:   39710947 heartbeat IPC: 2.20476 cumulative IPC: 2.31674 (Simulation time: 0 hr 2 min 36 sec) 
Heartbeat CPU  0 instructions:   93000002 cycles:   40167684 heartbeat IPC: 2.18945 cumulative IPC: 2.31529 (Simulation time: 0 hr 2 min 37 sec) 
Heartbeat CPU  0 instructions:   94000001 cycles:   40656017 heartbeat IPC: 2.04778 cumulative IPC: 2.31208 (Simulation time: 0 hr 2 min 39 sec) 
Heartbeat CPU  0 instructions:   95000003 cycles:   41028438 heartbeat IPC: 2.68514 cumulative IPC: 2.31547 (Simulation time: 0 hr 2 min 41 sec) 
Heartbeat CPU  0 instructions:   96000000 cycles:   41395477 heartbeat IPC: 2.72450 cumulative IPC: 2.31909 (Simulation time: 0 hr 2 min 42 sec) 
Heartbeat CPU  0 instructions:   97000001 cycles:   41841524 heartbeat IPC: 2.24192 cumulative IPC: 2.31827 (Simulation time: 0 hr 2 min 44 sec) 
Heartbeat CPU  0 instructions:   98000002 cycles:   42298117 heartbeat IPC: 2.19014 cumulative IPC: 2.31689 (Simulation time: 0 hr 2 min 46 sec) 
Heartbeat CPU  0 instructions:   99000003 cycles:   42784323 heartbeat IPC: 2.05674 cumulative IPC: 2.31393 (Simulation time: 0 hr 2 min 47 sec) 
Heartbeat CPU  0 instructions:  100000000 cycles:   43328507 heartbeat IPC: 1.83761 cumulative IPC: 2.30795 (Simulation time: 0 hr 2 min 49 sec) 

Warmup complete CPU  0 instructions:  100000001 cycles:   43328508 (Simulation time: 0 hr 2 min 49 sec) 

Heartbeat CPU  0 instructions:  101000001 cycles:   44177012 heartbeat IPC: 1.17854 cumulative IPC: 1.17854 (Simulation time: 0 hr 2 min 51 sec) 
Heartbeat CPU  0 instructions:  102000003 cycles:   44852866 heartbeat IPC: 1.47961 cumulative IPC: 1.31203 (Simulation time: 0 hr 2 min 53 sec) 
Heartbeat CPU  0 instructions:  103000000 cycles:   45710193 heartbeat IPC: 1.16641 cumulative IPC: 1.25961 (Simulation time: 0 hr 2 min 56 sec) 
Heartbeat CPU  0 instructions:  104000000 cycles:   46893993 heartbeat IPC: 0.84474 cumulative IPC: 1.12187 (Simulation time: 0 hr 2 min 58 sec) 
Heartbeat CPU  0 instructions:  105000000 cycles:   47956057 heartbeat IPC: 0.94156 cumulative IPC: 1.08049 (Simulation time: 0 hr 3 min 0 sec) 
Heartbeat CPU  0 instructions:  106000003 cycles:   48677500 heartbeat IPC: 1.38612 cumulative IPC: 1.12171 (Simulation time: 0 hr 3 min 2 sec) 
Heartbeat CPU  0 instructions:  107000003 cycles:   49327203 heartbeat IPC: 1.53916 cumulative IPC: 1.16692 (Simulation time: 0 hr 3 min 4 sec) 
Heartbeat CPU  0 instructions:  108000000 cycles:   50411140 heartbeat IPC: 0.92256 cumulative IPC: 1.12952 (Simulation time: 0 hr 3 min 6 sec) 
Heartbeat CPU  0 instructions:  109000000 cycles:   51594271 heartbeat IPC: 0.84521 cumulative IPC: 1.08883 (Simulation time: 0 hr 3 min 9 sec) 
Heartbeat CPU  0 instructions:  110000001 cycles:   52419318 heartbeat IPC: 1.21205 cumulative IPC: 1.10001 (Simulation time: 0 hr 3 min 11 sec) 
Heartbeat CPU  0 instructions:  111000000 cycles:   53087238 heartbeat IPC: 1.49718 cumulative IPC: 1.12720 (Simulation time: 0 hr 3 min 13 sec) 
Heartbeat CPU  0 instructions:  112000000 cycles:   53939492 heartbeat IPC: 1.17336 cumulative IPC: 1.13090 (Simulation time: 0 hr 3 min 15 sec) 
Heartbeat CPU  0 instructions:  113000003 cycles:   55090925 heartbeat IPC: 0.86849 cumulative IPC: 1.10522 (Simulation time: 0 hr 3 min 17 sec) 
Heartbeat CPU  0 instructions:  114000001 cycles:   56122279 heartbeat IPC: 0.96960 cumulative IPC: 1.09428 (Simulation time: 0 hr 3 min 19 sec) 
Heartbeat CPU  0 instructions:  115000000 cycles:   57050888 heartbeat IPC: 1.07688 cumulative IPC: 1.09310 (Simulation time: 0 hr 3 min 22 sec) 
Heartbeat CPU  0 instructions:  116000000 cycles:   57713244 heartbeat IPC: 1.50976 cumulative IPC: 1.11229 (Simulation time: 0 hr 3 min 24 sec) 
Heartbeat CPU  0 instructions:  117000000 cycles:   58863928 heartbeat IPC: 0.86905 cumulative IPC: 1.09427 (Simulation time: 0 hr 3 min 26 sec) 
Heartbeat CPU  0 instructions:  118000003 cycles:   60019941 heartbeat IPC: 0.86504 cumulative IPC: 1.07840 (Simulation time: 0 hr 3 min 28 sec) 
Heartbeat CPU  0 instructions:  119000002 cycles:   61253775 heartbeat IPC: 0.81048 cumulative IPC: 1.05996 (Simulation time: 0 hr 3 min 30 sec) 
Heartbeat CPU  0 instructions:  120000000 cycles:   62588171 heartbeat IPC: 0.74940 cumulative IPC: 1.03844 (Simulation time: 0 hr 3 min 33 sec) 
Heartbeat CPU  0 instructions:  121000000 cycles:   63446680 heartbeat IPC: 1.16481 cumulative IPC: 1.04383 (Simulation time: 0 hr 3 min 35 sec) 
Heartbeat CPU  0 instructions:  122000001 cycles:   64103872 heartbeat IPC: 1.52163 cumulative IPC: 1.05895 (Simulation time: 0 hr 3 min 37 sec) 
Heartbeat CPU  0 instructions:  123000001 cycles:   64967434 heartbeat IPC: 1.15799 cumulative IPC: 1.06290 (Simulation time: 0 hr 3 min 39 sec) 
Heartbeat CPU  0 instructions:  124000000 cycles:   66203093 heartbeat IPC: 0.80928 cumulative IPC: 1.04920 (Simulation time: 0 hr 3 min 41 sec) 
Heartbeat CPU  0 instructions:  125000001 cycles:   67399948 heartbeat IPC: 0.83552 cumulative IPC: 1.03858 (Simulation time: 0 hr 3 min 44 sec) 
Heartbeat CPU  0 instructions:  126000003 cycles:   68653054 heartbeat IPC: 0.79802 cumulative IPC: 1.02667 (Simulation time: 0 hr 3 min 46 sec) 
Heartbeat CPU  0 instructions:  127000000 cycles:   69646266 heartbeat IPC: 1.00683 cumulative IPC: 1.02592 (Simulation time: 0 hr 3 min 48 sec) 
Heartbeat CPU  0 instructions:  128000000 cycles:   70345929 heartbeat IPC: 1.42926 cumulative IPC: 1.03637 (Simulation time: 0 hr 3 min 50 sec) 
Heartbeat CPU  0 instructions:  129000000 cycles:   71049966 heartbeat IPC: 1.42038 cumulative IPC: 1.04612 (Simulation time: 0 hr 3 min 52 sec) 
Heartbeat CPU  0 instructions:  130000000 cycles:   72297724 heartbeat IPC: 0.80144 cumulative IPC: 1.03558 (Simulation time: 0 hr 3 min 55 sec) 
Heartbeat CPU  0 instructions:  131000002 cycles:   73497494 heartbeat IPC: 0.83349 cumulative IPC: 1.02755 (Simulation time: 0 hr 3 min 57 sec) 
Heartbeat CPU  0 instructions:  132000000 cycles:   74717830 heartbeat IPC: 0.81944 cumulative IPC: 1.01945 (Simulation time: 0 hr 3 min 59 sec) 
Heartbeat CPU  0 instructions:  133000002 cycles:   75523437 heartbeat IPC: 1.24130 cumulative IPC: 1.02501 (Simulation time: 0 hr 4 min 1 sec) 
Heartbeat CPU  0 instructions:  134000002 cycles:   76195621 heartbeat IPC: 1.48769 cumulative IPC: 1.03447 (Simulation time: 0 hr 4 min 3 sec) 
Heartbeat CPU  0 instructions:  135000001 cycles:   77139079 heartbeat IPC: 1.05993 cumulative IPC: 1.03518 (Simulation time: 0 hr 4 min 5 sec) 
Heartbeat CPU  0 instructions:  136000000 cycles:   78333806 heartbeat IPC: 0.83701 cumulative IPC: 1.02842 (Simulation time: 0 hr 4 min 8 sec) 
Heartbeat CPU  0 instructions:  137000002 cycles:   79475269 heartbeat IPC: 0.87607 cumulative IPC: 1.02360 (Simulation time: 0 hr 4 min 10 sec) 
Heartbeat CPU  0 instructions:  138000002 cycles:   80256629 heartbeat IPC: 1.27982 cumulative IPC: 1.02903 (Simulation time: 0 hr 4 min 12 sec) 
Heartbeat CPU  0 instructions:  139000002 cycles:   80923207 heartbeat IPC: 1.50020 cumulative IPC: 1.03738 (Simulation time: 0 hr 4 min 14 sec) 
Heartbeat CPU  0 instructions:  140000000 cycles:   81931186 heartbeat IPC: 0.99208 cumulative IPC: 1.03620 (Simulation time: 0 hr 4 min 16 sec) 
Heartbeat CPU  0 instructions:  141000000 cycles:   83113154 heartbeat IPC: 0.84605 cumulative IPC: 1.03055 (Simulation time: 0 hr 4 min 19 sec) 
Heartbeat CPU  0 instructions:  142000001 cycles:   84172755 heartbeat IPC: 0.94375 cumulative IPC: 1.02830 (Simulation time: 0 hr 4 min 21 sec) 
Heartbeat CPU  0 instructions:  143000003 cycles:   84894102 heartbeat IPC: 1.38630 cumulative IPC: 1.03451 (Simulation time: 0 hr 4 min 23 sec) 
Heartbeat CPU  0 instructions:  144000000 cycles:   85555102 heartbeat IPC: 1.51285 cumulative IPC: 1.04200 (Simulation time: 0 hr 4 min 25 sec) 
Heartbeat CPU  0 instructions:  145000002 cycles:   86676367 heartbeat IPC: 0.89185 cumulative IPC: 1.03811 (Simulation time: 0 hr 4 min 27 sec) 
Heartbeat CPU  0 instructions:  146000002 cycles:   87889354 heartbeat IPC: 0.82441 cumulative IPC: 1.03230 (Simulation time: 0 hr 4 min 29 sec) 
Heartbeat CPU  0 instructions:  147000002 cycles:   88781911 heartbeat IPC: 1.12038 cumulative IPC: 1.03403 (Simulation time: 0 hr 4 min 31 sec) 
Heartbeat CPU  0 instructions:  148000000 cycles:   89437420 heartbeat IPC: 1.52553 cumulative IPC: 1.04101 (Simulation time: 0 hr 4 min 33 sec) 
Heartbeat CPU  0 instructions:  149000000 cycles:   90212982 heartbeat IPC: 1.28939 cumulative IPC: 1.04512 (Simulation time: 0 hr 4 min 36 sec) 
Heartbeat CPU  0 instructions:  150000003 cycles:   91402180 heartbeat IPC: 0.84091 cumulative IPC: 1.04007 (Simulation time: 0 hr 4 min 38 sec) 
Heartbeat CPU  0 instructions:  151000002 cycles:   92594689 heartbeat IPC: 0.83857 cumulative IPC: 1.03519 (Simulation time: 0 hr 4 min 40 sec) 
Heartbeat CPU  0 instructions:  152000000 cycles:   93496855 heartbeat IPC: 1.10844 cumulative IPC: 1.03651 (Simulation time: 0 hr 4 min 42 sec) 
Heartbeat CPU  0 instructions:  153000001 cycles:   94266099 heartbeat IPC: 1.29998 cumulative IPC: 1.04049 (Simulation time: 0 hr 4 min 44 sec) 
Heartbeat CPU  0 instructions:  154000003 cycles:   94935093 heartbeat IPC: 1.49478 cumulative IPC: 1.04638 (Simulation time: 0 hr 4 min 46 sec) 
Heartbeat CPU  0 instructions:  155000003 cycles:   95874318 heartbeat IPC: 1.06471 cumulative IPC: 1.04671 (Simulation time: 0 hr 4 min 49 sec) 
Heartbeat CPU  0 instructions:  156000000 cycles:   97053976 heartbeat IPC: 0.84770 cumulative IPC: 1.04234 (Simulation time: 0 hr 4 min 51 sec) 
Heartbeat CPU  0 instructions:  157000003 cycles:   98063472 heartbeat IPC: 0.99060 cumulative IPC: 1.04138 (Simulation time: 0 hr 4 min 53 sec) 
Heartbeat CPU  0 instructions:  158000003 cycles:   98769288 heartbeat IPC: 1.41680 cumulative IPC: 1.04616 (Simulation time: 0 hr 4 min 55 sec) 
Heartbeat CPU  0 instructions:  159000000 cycles:   99428319 heartbeat IPC: 1.51737 cumulative IPC: 1.05170 (Simulation time: 0 hr 4 min 57 sec) 
Heartbeat CPU  0 instructions:  160000000 cycles:  100618570 heartbeat IPC: 0.84016 cumulative IPC: 1.04730 (Simulation time: 0 hr 5 min 0 sec) 
Heartbeat CPU  0 instructions:  161000000 cycles:  101775816 heartbeat IPC: 0.86412 cumulative IPC: 1.04368 (Simulation time: 0 hr 5 min 2 sec) 
Heartbeat CPU  0 instructions:  162000003 cycles:  102561686 heartbeat IPC: 1.27248 cumulative IPC: 1.04671 (Simulation time: 0 hr 5 min 4 sec) 
Heartbeat CPU  0 instructions:  163000002 cycles:  103216291 heartbeat IPC: 1.52764 cumulative IPC: 1.05197 (Simulation time: 0 hr 5 min 6 sec) 
Heartbeat CPU  0 instructions:  164000000 cycles:  104134668 heartbeat IPC: 1.08888 cumulative IPC: 1.05252 (Simulation time: 0 hr 5 min 8 sec) 
Heartbeat CPU  0 instructions:  165000000 cycles:  105305630 heartbeat IPC: 0.85400 cumulative IPC: 1.04877 (Simulation time: 0 hr 5 min 11 sec) 
Heartbeat CPU  0 instructions:  166000002 cycles:  106312234 heartbeat IPC: 0.99344 cumulative IPC: 1.04789 (Simulation time: 0 hr 5 min 13 sec) 
Heartbeat CPU  0 instructions:  167000001 cycles:  107016212 heartbeat IPC: 1.42050 cumulative IPC: 1.05201 (Simulation time: 0 hr 5 min 15 sec) 
Heartbeat CPU  0 instructions:  168000000 cycles:  107673095 heartbeat IPC: 1.52234 cumulative IPC: 1.05681 (Simulation time: 0 hr 5 min 17 sec) 
Heartbeat CPU  0 instructions:  169000000 cycles:  108851765 heartbeat IPC: 0.84841 cumulative IPC: 1.05306 (Simulation time: 0 hr 5 min 19 sec) 
Heartbeat CPU  0 instructions:  170000002 cycles:  110018335 heartbeat IPC: 0.85722 cumulative IPC: 1.04964 (Simulation time: 0 hr 5 min 22 sec) 
Heartbeat CPU  0 instructions:  171000003 cycles:  110810373 heartbeat IPC: 1.26257 cumulative IPC: 1.05213 (Simulation time: 0 hr 5 min 24 sec) 
Heartbeat CPU  0 instructions:  172000000 cycles:  111476656 heartbeat IPC: 1.50086 cumulative IPC: 1.05652 (Simulation time: 0 hr 5 min 26 sec) 
Heartbeat CPU  0 instructions:  173000000 cycles:  112390023 heartbeat IPC: 1.09485 cumulative IPC: 1.05703 (Simulation time: 0 hr 5 min 28 sec) 
Heartbeat CPU  0 instructions:  174000000 cycles:  113565250 heartbeat IPC: 0.85090 cumulative IPC: 1.05358 (Simulation time: 0 hr 5 min 30 sec) 
Heartbeat CPU  0 instructions:  175000002 cycles:  114579644 heartbeat IPC: 0.98581 cumulative IPC: 1.05261 (Simulation time: 0 hr 5 min 32 sec) 
Heartbeat CPU  0 instructions:  176000000 cycles:  115277654 heartbeat IPC: 1.43264 cumulative IPC: 1.05630 (Simulation time: 0 hr 5 min 35 sec) 
Heartbeat CPU  0 instructions:  177000003 cycles:  115933322 heartbeat IPC: 1.52517 cumulative IPC: 1.06054 (Simulation time: 0 hr 5 min 37 sec) 
Heartbeat CPU  0 instructions:  178000003 cycles:  117096683 heartbeat IPC: 0.85958 cumulative IPC: 1.05737 (Simulation time: 0 hr 5 min 39 sec) 
Heartbeat CPU  0 instructions:  179000003 cycles:  118270538 heartbeat IPC: 0.85189 cumulative IPC: 1.05415 (Simulation time: 0 hr 5 min 41 sec) 
Heartbeat CPU  0 instructions:  180000000 cycles:  119064537 heartbeat IPC: 1.25944 cumulative IPC: 1.05630 (Simulation time: 0 hr 5 min 43 sec) 
Heartbeat CPU  0 instructions:  181000002 cycles:  119729721 heartbeat IPC: 1.50335 cumulative IPC: 1.06019 (Simulation time: 0 hr 5 min 46 sec) 
Heartbeat CPU  0 instructions:  182000003 cycles:  120633784 heartbeat IPC: 1.10612 cumulative IPC: 1.06073 (Simulation time: 0 hr 5 min 48 sec) 
Heartbeat CPU  0 instructions:  183000002 cycles:  121785706 heartbeat IPC: 0.86811 cumulative IPC: 1.05790 (Simulation time: 0 hr 5 min 50 sec) 
Heartbeat CPU  0 instructions:  184000000 cycles:  122813646 heartbeat IPC: 0.97282 cumulative IPC: 1.05680 (Simulation time: 0 hr 5 min 52 sec) 
Heartbeat CPU  0 instructions:  185000003 cycles:  123505616 heartbeat IPC: 1.44515 cumulative IPC: 1.06015 (Simulation time: 0 hr 5 min 54 sec) 
Heartbeat CPU  0 instructions:  186000001 cycles:  124159142 heartbeat IPC: 1.53016 cumulative IPC: 1.06395 (Simulation time: 0 hr 5 min 57 sec) 
Heartbeat CPU  0 instructions:  187000002 cycles:  125319591 heartbeat IPC: 0.86174 cumulative IPC: 1.06109 (Simulation time: 0 hr 5 min 59 sec) 
Heartbeat CPU  0 instructions:  188000000 cycles:  126494174 heartbeat IPC: 0.85136 cumulative IPC: 1.05813 (Simulation time: 0 hr 6 min 1 sec) 
Heartbeat CPU  0 instructions:  189000001 cycles:  127297469 heartbeat IPC: 1.24487 cumulative IPC: 1.05992 (Simulation time: 0 hr 6 min 3 sec) 
Heartbeat CPU  0 instructions:  190000001 cycles:  127957565 heartbeat IPC: 1.51493 cumulative IPC: 1.06346 (Simulation time: 0 hr 6 min 5 sec) 
Heartbeat CPU  0 instructions:  191000003 cycles:  128865684 heartbeat IPC: 1.10118 cumulative IPC: 1.06386 (Simulation time: 0 hr 6 min 8 sec) 
Heartbeat CPU  0 instructions:  192000000 cycles:  130022051 heartbeat IPC: 0.86477 cumulative IPC: 1.06121 (Simulation time: 0 hr 6 min 10 sec) 
Heartbeat CPU  0 instructions:  193000002 cycles:  131059561 heartbeat IPC: 0.96385 cumulative IPC: 1.06006 (Simulation time: 0 hr 6 min 12 sec) 
Heartbeat CPU  0 instructions:  194000002 cycles:  131753740 heartbeat IPC: 1.44055 cumulative IPC: 1.06305 (Simulation time: 0 hr 6 min 14 sec) 
Heartbeat CPU  0 instructions:  195000003 cycles:  132407879 heartbeat IPC: 1.52873 cumulative IPC: 1.06646 (Simulation time: 0 hr 6 min 16 sec) 
Heartbeat CPU  0 instructions:  196000000 cycles:  133559500 heartbeat IPC: 0.86834 cumulative IPC: 1.06394 (Simulation time: 0 hr 6 min 18 sec) 
Heartbeat CPU  0 instructions:  197000002 cycles:  134753068 heartbeat IPC: 0.83783 cumulative IPC: 1.06098 (Simulation time: 0 hr 6 min 21 sec) 
Heartbeat CPU  0 instructions:  198000001 cycles:  135548306 heartbeat IPC: 1.25748 cumulative IPC: 1.06268 (Simulation time: 0 hr 6 min 23 sec) 
Heartbeat CPU  0 instructions:  199000001 cycles:  136208508 heartbeat IPC: 1.51469 cumulative IPC: 1.06589 (Simulation time: 0 hr 6 min 25 sec) 
Heartbeat CPU  0 instructions:  200000000 cycles:  137092977 heartbeat IPC: 1.13062 cumulative IPC: 1.06650 (Simulation time: 0 hr 6 min 27 sec) 
Heartbeat CPU  0 instructions:  201000003 cycles:  138238941 heartbeat IPC: 0.87263 cumulative IPC: 1.06416 (Simulation time: 0 hr 6 min 29 sec) 
Heartbeat CPU  0 instructions:  202000001 cycles:  139279460 heartbeat IPC: 0.96106 cumulative IPC: 1.06304 (Simulation time: 0 hr 6 min 31 sec) 
Heartbeat CPU  0 instructions:  203000001 cycles:  139986306 heartbeat IPC: 1.41474 cumulative IPC: 1.06562 (Simulation time: 0 hr 6 min 34 sec) 
Heartbeat CPU  0 instructions:  204000000 cycles:  140645322 heartbeat IPC: 1.51741 cumulative IPC: 1.06867 (Simulation time: 0 hr 6 min 36 sec) 
Heartbeat CPU  0 instructions:  205000002 cycles:  141765318 heartbeat IPC: 0.89286 cumulative IPC: 1.06667 (Simulation time: 0 hr 6 min 38 sec) 
Heartbeat CPU  0 instructions:  206000001 cycles:  142959499 heartbeat IPC: 0.83739 cumulative IPC: 1.06393 (Simulation time: 0 hr 6 min 40 sec) 
Heartbeat CPU  0 instructions:  207000000 cycles:  143766420 heartbeat IPC: 1.23928 cumulative IPC: 1.06533 (Simulation time: 0 hr 6 min 42 sec) 
Heartbeat CPU  0 instructions:  208000000 cycles:  144426204 heartbeat IPC: 1.51565 cumulative IPC: 1.06827 (Simulation time: 0 hr 6 min 45 sec) 
Heartbeat CPU  0 instructions:  209000001 cycles:  145298174 heartbeat IPC: 1.14683 cumulative IPC: 1.06895 (Simulation time: 0 hr 6 min 47 sec) 
Heartbeat CPU  0 instructions:  210000000 cycles:  146443962 heartbeat IPC: 0.87276 cumulative IPC: 1.06677 (Simulation time: 0 hr 6 min 49 sec) 
Heartbeat CPU  0 instructions:  211000003 cycles:  147561967 heartbeat IPC: 0.89445 cumulative IPC: 1.06492 (Simulation time: 0 hr 6 min 51 sec) 
Heartbeat CPU  0 instructions:  212000000 cycles:  148422588 heartbeat IPC: 1.16195 cumulative IPC: 1.06571 (Simulation time: 0 hr 6 min 53 sec) 
Heartbeat CPU  0 instructions:  213000002 cycles:  149146601 heartbeat IPC: 1.38119 cumulative IPC: 1.06787 (Simulation time: 0 hr 6 min 55 sec) 
Heartbeat CPU  0 instructions:  214000000 cycles:  149806519 heartbeat IPC: 1.51534 cumulative IPC: 1.07064 (Simulation time: 0 hr 6 min 58 sec) 
Heartbeat CPU  0 instructions:  215000002 cycles:  150936763 heartbeat IPC: 0.88477 cumulative IPC: 1.06869 (Simulation time: 0 hr 7 min 0 sec) 
Heartbeat CPU  0 instructions:  216000000 cycles:  152128993 heartbeat IPC: 0.83876 cumulative IPC: 1.06617 (Simulation time: 0 hr 7 min 2 sec) 
Heartbeat CPU  0 instructions:  217000001 cycles:  152924711 heartbeat IPC: 1.25673 cumulative IPC: 1.06756 (Simulation time: 0 hr 7 min 4 sec) 
Heartbeat CPU  0 instructions:  218000000 cycles:  153581615 heartbeat IPC: 1.52229 cumulative IPC: 1.07026 (Simulation time: 0 hr 7 min 6 sec) 
Heartbeat CPU  0 instructions:  219000000 cycles:  154466163 heartbeat IPC: 1.13052 cumulative IPC: 1.07074 (Simulation time: 0 hr 7 min 8 sec) 
Heartbeat CPU  0 instructions:  220000000 cycles:  155610246 heartbeat IPC: 0.87406 cumulative IPC: 1.06874 (Simulation time: 0 hr 7 min 11 sec) 
Heartbeat CPU  0 instructions:  221000001 cycles:  156651166 heartbeat IPC: 0.96069 cumulative IPC: 1.06775 (Simulation time: 0 hr 7 min 13 sec) 
Heartbeat CPU  0 instructions:  222000002 cycles:  157352903 heartbeat IPC: 1.42504 cumulative IPC: 1.06995 (Simulation time: 0 hr 7 min 15 sec) 
Heartbeat CPU  0 instructions:  223000000 cycles:  158011625 heartbeat IPC: 1.51809 cumulative IPC: 1.07252 (Simulation time: 0 hr 7 min 17 sec) 
Heartbeat CPU  0 instructions:  224000000 cycles:  159159379 heartbeat IPC: 0.87127 cumulative IPC: 1.07053 (Simulation time: 0 hr 7 min 19 sec) 
Heartbeat CPU  0 instructions:  225000001 cycles:  160340116 heartbeat IPC: 0.84693 cumulative IPC: 1.06827 (Simulation time: 0 hr 7 min 22 sec) 
Heartbeat CPU  0 instructions:  226000002 cycles:  161133144 heartbeat IPC: 1.26099 cumulative IPC: 1.06957 (Simulation time: 0 hr 7 min 24 sec) 
Heartbeat CPU  0 instructions:  227000001 cycles:  161801620 heartbeat IPC: 1.49594 cumulative IPC: 1.07197 (Simulation time: 0 hr 7 min 26 sec) 
Heartbeat CPU  0 instructions:  228000000 cycles:  162689036 heartbeat IPC: 1.12687 cumulative IPC: 1.07238 (Simulation time: 0 hr 7 min 28 sec) 
Heartbeat CPU  0 instructions:  229000003 cycles:  163842844 heartbeat IPC: 0.86670 cumulative IPC: 1.07041 (Simulation time: 0 hr 7 min 30 sec) 
Heartbeat CPU  0 instructions:  230000001 cycles:  164875378 heartbeat IPC: 0.96849 cumulative IPC: 1.06955 (Simulation time: 0 hr 7 min 32 sec) 
Heartbeat CPU  0 instructions:  231000002 cycles:  165574651 heartbeat IPC: 1.43006 cumulative IPC: 1.07161 (Simulation time: 0 hr 7 min 35 sec) 
Heartbeat CPU  0 instructions:  232000000 cycles:  166234293 heartbeat IPC: 1.51597 cumulative IPC: 1.07399 (Simulation time: 0 hr 7 min 37 sec) 
Heartbeat CPU  0 instructions:  233000002 cycles:  167370360 heartbeat IPC: 0.88023 cumulative IPC: 1.07222 (Simulation time: 0 hr 7 min 39 sec) 
Heartbeat CPU  0 instructions:  234000003 cycles:  168558650 heartbeat IPC: 0.84155 cumulative IPC: 1.07003 (Simulation time: 0 hr 7 min 41 sec) 
Heartbeat CPU  0 instructions:  235000000 cycles:  169345103 heartbeat IPC: 1.27153 cumulative IPC: 1.07129 (Simulation time: 0 hr 7 min 43 sec) 
Heartbeat CPU  0 instructions:  236000000 cycles:  170015748 heartbeat IPC: 1.49110 cumulative IPC: 1.07351 (Simulation time: 0 hr 7 min 46 sec) 
Heartbeat CPU  0 instructions:  237000003 cycles:  170901798 heartbeat IPC: 1.12861 cumulative IPC: 1.07389 (Simulation time: 0 hr 7 min 48 sec) 
Heartbeat CPU  0 instructions:  238000000 cycles:  172050355 heartbeat IPC: 0.87066 cumulative IPC: 1.07208 (Simulation time: 0 hr 7 min 50 sec) 
Heartbeat CPU  0 instructions:  239000000 cycles:  173077498 heartbeat IPC: 0.97357 cumulative IPC: 1.07130 (Simulation time: 0 hr 7 min 52 sec) 
Heartbeat CPU  0 instructions:  240000000 cycles:  173784107 heartbeat IPC: 1.41521 cumulative IPC: 1.07316 (Simulation time: 0 hr 7 min 54 sec) 
Heartbeat CPU  0 instructions:  241000000 cycles:  174438271 heartbeat IPC: 1.52867 cumulative IPC: 1.07543 (Simulation time: 0 hr 7 min 57 sec) 
Heartbeat CPU  0 instructions:  242000002 cycles:  175565783 heartbeat IPC: 0.88691 cumulative IPC: 1.07383 (Simulation time: 0 hr 7 min 59 sec) 
Heartbeat CPU  0 instructions:  243000001 cycles:  176750362 heartbeat IPC: 0.84418 cumulative IPC: 1.07179 (Simulation time: 0 hr 8 min 1 sec) 
Heartbeat CPU  0 instructions:  244000000 cycles:  177552907 heartbeat IPC: 1.24603 cumulative IPC: 1.07283 (Simulation time: 0 hr 8 min 3 sec) 
Heartbeat CPU  0 instructions:  245000001 cycles:  178225182 heartbeat IPC: 1.48749 cumulative IPC: 1.07490 (Simulation time: 0 hr 8 min 5 sec) 
Heartbeat CPU  0 instructions:  246000000 cycles:  179110945 heartbeat IPC: 1.12897 cumulative IPC: 1.07525 (Simulation time: 0 hr 8 min 7 sec) 
Heartbeat CPU  0 instructions:  247000001 cycles:  180253426 heartbeat IPC: 0.87529 cumulative IPC: 1.07358 (Simulation time: 0 hr 8 min 10 sec) 
Heartbeat CPU  0 instructions:  248000000 cycles:  181295112 heartbeat IPC: 0.95998 cumulative IPC: 1.07272 (Simulation time: 0 hr 8 min 12 sec) 
Heartbeat CPU  0 instructions:  249000003 cycles:  182014385 heartbeat IPC: 1.39030 cumulative IPC: 1.07437 (Simulation time: 0 hr 8 min 14 sec) 
Heartbeat CPU  0 instructions:  250000003 cycles:  182672050 heartbeat IPC: 1.52053 cumulative IPC: 1.07648 (Simulation time: 0 hr 8 min 16 sec) 
Heartbeat CPU  0 instructions:  251000002 cycles:  183817402 heartbeat IPC: 0.87309 cumulative IPC: 1.07482 (Simulation time: 0 hr 8 min 18 sec) 
Heartbeat CPU  0 instructions:  252000000 cycles:  185001644 heartbeat IPC: 0.84442 cumulative IPC: 1.07289 (Simulation time: 0 hr 8 min 21 sec) 
Heartbeat CPU  0 instructions:  253000002 cycles:  185799858 heartbeat IPC: 1.25280 cumulative IPC: 1.07390 (Simulation time: 0 hr 8 min 23 sec) 
Heartbeat CPU  0 instructions:  254000003 cycles:  186465336 heartbeat IPC: 1.50268 cumulative IPC: 1.07589 (Simulation time: 0 hr 8 min 25 sec) 
Heartbeat CPU  0 instructions:  255000002 cycles:  187356235 heartbeat IPC: 1.12246 cumulative IPC: 1.07618 (Simulation time: 0 hr 8 min 27 sec) 
Heartbeat CPU  0 instructions:  256000000 cycles:  188516526 heartbeat IPC: 0.86185 cumulative IPC: 1.07447 (Simulation time: 0 hr 8 min 29 sec) 
Heartbeat CPU  0 instructions:  257000001 cycles:  189540526 heartbeat IPC: 0.97656 cumulative IPC: 1.07378 (Simulation time: 0 hr 8 min 31 sec) 
Heartbeat CPU  0 instructions:  258000000 cycles:  190240868 heartbeat IPC: 1.42787 cumulative IPC: 1.07547 (Simulation time: 0 hr 8 min 34 sec) 
Heartbeat CPU  0 instructions:  259000000 cycles:  190901016 heartbeat IPC: 1.51481 cumulative IPC: 1.07744 (Simulation time: 0 hr 8 min 36 sec) 
Heartbeat CPU  0 instructions:  260000000 cycles:  192072299 heartbeat IPC: 0.85376 cumulative IPC: 1.07568 (Simulation time: 0 hr 8 min 38 sec) 
Heartbeat CPU  0 instructions:  261000003 cycles:  193232031 heartbeat IPC: 0.86227 cumulative IPC: 1.07402 (Simulation time: 0 hr 8 min 40 sec) 
Heartbeat CPU  0 instructions:  262000001 cycles:  194020480 heartbeat IPC: 1.26831 cumulative IPC: 1.07504 (Simulation time: 0 hr 8 min 42 sec) 
Heartbeat CPU  0 instructions:  263000002 cycles:  194678823 heartbeat IPC: 1.51897 cumulative IPC: 1.07697 (Simulation time: 0 hr 8 min 45 sec) 
Heartbeat CPU  0 instructions:  264000000 cycles:  195601622 heartbeat IPC: 1.08366 cumulative IPC: 1.07701 (Simulation time: 0 hr 8 min 47 sec) 
Heartbeat CPU  0 instructions:  265000000 cycles:  196826563 heartbeat IPC: 0.81637 cumulative IPC: 1.07493 (Simulation time: 0 hr 8 min 49 sec) 
Heartbeat CPU  0 instructions:  266000000 cycles:  197866919 heartbeat IPC: 0.96121 cumulative IPC: 1.07417 (Simulation time: 0 hr 8 min 51 sec) 
Heartbeat CPU  0 instructions:  267000002 cycles:  198704737 heartbeat IPC: 1.19358 cumulative IPC: 1.07481 (Simulation time: 0 hr 8 min 54 sec) 
Heartbeat CPU  0 instructions:  268000000 cycles:  199405943 heartbeat IPC: 1.42611 cumulative IPC: 1.07639 (Simulation time: 0 hr 8 min 56 sec) 
Heartbeat CPU  0 instructions:  269000002 cycles:  200064194 heartbeat IPC: 1.51918 cumulative IPC: 1.07825 (Simulation time: 0 hr 8 min 58 sec) 
Heartbeat CPU  0 instructions:  270000003 cycles:  201547713 heartbeat IPC: 0.67407 cumulative IPC: 1.07446 (Simulation time: 0 hr 9 min 0 sec) 
Heartbeat CPU  0 instructions:  271000001 cycles:  202478869 heartbeat IPC: 1.07393 cumulative IPC: 1.07446 (Simulation time: 0 hr 9 min 2 sec) 
Heartbeat CPU  0 instructions:  272000000 cycles:  203154549 heartbeat IPC: 1.47999 cumulative IPC: 1.07617 (Simulation time: 0 hr 9 min 5 sec) 
Heartbeat CPU  0 instructions:  273000001 cycles:  203895286 heartbeat IPC: 1.35001 cumulative IPC: 1.07743 (Simulation time: 0 hr 9 min 7 sec) 
Heartbeat CPU  0 instructions:  274000000 cycles:  205382715 heartbeat IPC: 0.67230 cumulative IPC: 1.07371 (Simulation time: 0 hr 9 min 9 sec) 
Heartbeat CPU  0 instructions:  275000003 cycles:  206196956 heartbeat IPC: 1.22814 cumulative IPC: 1.07449 (Simulation time: 0 hr 9 min 11 sec) 
Heartbeat CPU  0 instructions:  276000000 cycles:  206866043 heartbeat IPC: 1.49457 cumulative IPC: 1.07621 (Simulation time: 0 hr 9 min 14 sec) 
Heartbeat CPU  0 instructions:  277000001 cycles:  207799470 heartbeat IPC: 1.07132 cumulative IPC: 1.07618 (Simulation time: 0 hr 9 min 16 sec) 
Heartbeat CPU  0 instructions:  278000002 cycles:  209154660 heartbeat IPC: 0.73790 cumulative IPC: 1.07341 (Simulation time: 0 hr 9 min 18 sec) 
Heartbeat CPU  0 instructions:  279000003 cycles:  209933023 heartbeat IPC: 1.28475 cumulative IPC: 1.07440 (Simulation time: 0 hr 9 min 20 sec) 
Heartbeat CPU  0 instructions:  280000000 cycles:  210600354 heartbeat IPC: 1.49850 cumulative IPC: 1.07609 (Simulation time: 0 hr 9 min 22 sec) 
Heartbeat CPU  0 instructions:  281000003 cycles:  211585929 heartbeat IPC: 1.01464 cumulative IPC: 1.07573 (Simulation time: 0 hr 9 min 25 sec) 
Heartbeat CPU  0 instructions:  282000001 cycles:  212901406 heartbeat IPC: 0.76018 cumulative IPC: 1.07328 (Simulation time: 0 hr 9 min 27 sec) 
Heartbeat CPU  0 instructions:  283000003 cycles:  213680297 heartbeat IPC: 1.28388 cumulative IPC: 1.07425 (Simulation time: 0 hr 9 min 29 sec) 
Heartbeat CPU  0 instructions:  284000000 cycles:  214336807 heartbeat IPC: 1.52320 cumulative IPC: 1.07597 (Simulation time: 0 hr 9 min 31 sec) 
Heartbeat CPU  0 instructions:  285000002 cycles:  215482546 heartbeat IPC: 0.87280 cumulative IPC: 1.07462 (Simulation time: 0 hr 9 min 34 sec) 
Heartbeat CPU  0 instructions:  286000002 cycles:  217048073 heartbeat IPC: 0.63876 cumulative IPC: 1.07069 (Simulation time: 0 hr 9 min 36 sec) 
Heartbeat CPU  0 instructions:  287000003 cycles:  217974730 heartbeat IPC: 1.07915 cumulative IPC: 1.07074 (Simulation time: 0 hr 9 min 38 sec) 
Heartbeat CPU  0 instructions:  288000000 cycles:  218633196 heartbeat IPC: 1.51868 cumulative IPC: 1.07242 (Simulation time: 0 hr 9 min 40 sec) 
Heartbeat CPU  0 instructions:  289000001 cycles:  219507361 heartbeat IPC: 1.14395 cumulative IPC: 1.07277 (Simulation time: 0 hr 9 min 43 sec) 
Heartbeat CPU  0 instructions:  290000001 cycles:  220912835 heartbeat IPC: 0.71150 cumulative IPC: 1.06991 (Simulation time: 0 hr 9 min 45 sec) 
Heartbeat CPU  0 instructions:  291000003 cycles:  222404613 heartbeat IPC: 0.67034 cumulative IPC: 1.06659 (Simulation time: 0 hr 9 min 47 sec) 
Heartbeat CPU  0 instructions:  292000000 cycles:  223586296 heartbeat IPC: 0.84625 cumulative IPC: 1.06514 (Simulation time: 0 hr 9 min 50 sec) 
Heartbeat CPU  0 instructions:  293000001 cycles:  224302690 heartbeat IPC: 1.39588 cumulative IPC: 1.06645 (Simulation time: 0 hr 9 min 52 sec) 
Heartbeat CPU  0 instructions:  294000002 cycles:  224958358 heartbeat IPC: 1.52516 cumulative IPC: 1.06811 (Simulation time: 0 hr 9 min 54 sec) 
Heartbeat CPU  0 instructions:  295000003 cycles:  226177253 heartbeat IPC: 0.82042 cumulative IPC: 1.06646 (Simulation time: 0 hr 9 min 56 sec) 
Heartbeat CPU  0 instructions:  296000000 cycles:  227394638 heartbeat IPC: 0.82143 cumulative IPC: 1.06483 (Simulation time: 0 hr 9 min 58 sec) 
Heartbeat CPU  0 instructions:  297000002 cycles:  228622119 heartbeat IPC: 0.81468 cumulative IPC: 1.06318 (Simulation time: 0 hr 10 min 1 sec) 
Heartbeat CPU  0 instructions:  298000003 cycles:  229872730 heartbeat IPC: 0.79961 cumulative IPC: 1.06141 (Simulation time: 0 hr 10 min 3 sec) 
Heartbeat CPU  0 instructions:  299000001 cycles:  230786836 heartbeat IPC: 1.09396 cumulative IPC: 1.06157 (Simulation time: 0 hr 10 min 5 sec) 
Heartbeat CPU  0 instructions:  300000000 cycles:  231447885 heartbeat IPC: 1.51275 cumulative IPC: 1.06315 (Simulation time: 0 hr 10 min 7 sec) 
Heartbeat CPU  0 instructions:  301000000 cycles:  232482513 heartbeat IPC: 0.96653 cumulative IPC: 1.06263 (Simulation time: 0 hr 10 min 9 sec) 
Heartbeat CPU  0 instructions:  302000001 cycles:  233684680 heartbeat IPC: 0.83183 cumulative IPC: 1.06117 (Simulation time: 0 hr 10 min 12 sec) 
Heartbeat CPU  0 instructions:  303000003 cycles:  234877908 heartbeat IPC: 0.83806 cumulative IPC: 1.05978 (Simulation time: 0 hr 10 min 14 sec) 
Heartbeat CPU  0 instructions:  304000000 cycles:  236100998 heartbeat IPC: 0.81760 cumulative IPC: 1.05824 (Simulation time: 0 hr 10 min 16 sec) 
Heartbeat CPU  0 instructions:  305000000 cycles:  237461868 heartbeat IPC: 0.73482 cumulative IPC: 1.05598 (Simulation time: 0 hr 10 min 18 sec) 
Heartbeat CPU  0 instructions:  306000002 cycles:  238352941 heartbeat IPC: 1.12224 cumulative IPC: 1.05628 (Simulation time: 0 hr 10 min 21 sec) 
Heartbeat CPU  0 instructions:  307000001 cycles:  239013942 heartbeat IPC: 1.51286 cumulative IPC: 1.05782 (Simulation time: 0 hr 10 min 23 sec) 
Heartbeat CPU  0 instructions:  308000000 cycles:  239958705 heartbeat IPC: 1.05847 cumulative IPC: 1.05782 (Simulation time: 0 hr 10 min 25 sec) 
Heartbeat CPU  0 instructions:  309000002 cycles:  241193496 heartbeat IPC: 0.80986 cumulative IPC: 1.05628 (Simulation time: 0 hr 10 min 27 sec) 
Heartbeat CPU  0 instructions:  310000002 cycles:  242354281 heartbeat IPC: 0.86149 cumulative IPC: 1.05514 (Simulation time: 0 hr 10 min 29 sec) 
Heartbeat CPU  0 instructions:  311000001 cycles:  243591174 heartbeat IPC: 0.80848 cumulative IPC: 1.05362 (Simulation time: 0 hr 10 min 32 sec) 
Heartbeat CPU  0 instructions:  312000000 cycles:  244924669 heartbeat IPC: 0.74991 cumulative IPC: 1.05161 (Simulation time: 0 hr 10 min 34 sec) 
Heartbeat CPU  0 instructions:  313000003 cycles:  245753679 heartbeat IPC: 1.20626 cumulative IPC: 1.05224 (Simulation time: 0 hr 10 min 36 sec) 
Heartbeat CPU  0 instructions:  314000000 cycles:  246415887 heartbeat IPC: 1.51010 cumulative IPC: 1.05373 (Simulation time: 0 hr 10 min 38 sec) 
Heartbeat CPU  0 instructions:  315000003 cycles:  247405438 heartbeat IPC: 1.01056 cumulative IPC: 1.05352 (Simulation time: 0 hr 10 min 40 sec) 
Heartbeat CPU  0 instructions:  316000000 cycles:  248624992 heartbeat IPC: 0.81997 cumulative IPC: 1.05214 (Simulation time: 0 hr 10 min 43 sec) 
Heartbeat CPU  0 instructions:  317000002 cycles:  249985288 heartbeat IPC: 0.73514 cumulative IPC: 1.05005 (Simulation time: 0 hr 10 min 45 sec) 
Heartbeat CPU  0 instructions:  318000001 cycles:  251286579 heartbeat IPC: 0.76847 cumulative IPC: 1.04829 (Simulation time: 0 hr 10 min 47 sec) 
Heartbeat CPU  0 instructions:  319000002 cycles:  252156165 heartbeat IPC: 1.14997 cumulative IPC: 1.04871 (Simulation time: 0 hr 10 min 49 sec) 
Heartbeat CPU  0 instructions:  320000000 cycles:  252825516 heartbeat IPC: 1.49398 cumulative IPC: 1.05013 (Simulation time: 0 hr 10 min 52 sec) 
Heartbeat CPU  0 instructions:  321000000 cycles:  253852393 heartbeat IPC: 0.97383 cumulative IPC: 1.04976 (Simulation time: 0 hr 10 min 54 sec) 
Heartbeat CPU  0 instructions:  322000001 cycles:  255143087 heartbeat IPC: 0.77478 cumulative IPC: 1.04809 (Simulation time: 0 hr 10 min 56 sec) 
Heartbeat CPU  0 instructions:  323000000 cycles:  256521966 heartbeat IPC: 0.72523 cumulative IPC: 1.04600 (Simulation time: 0 hr 10 min 59 sec) 
Heartbeat CPU  0 instructions:  324000000 cycles:  257992404 heartbeat IPC: 0.68007 cumulative IPC: 1.04349 (Simulation time: 0 hr 11 min 1 sec) 
Heartbeat CPU  0 instructions:  325000000 cycles:  258857741 heartbeat IPC: 1.15562 cumulative IPC: 1.04394 (Simulation time: 0 hr 11 min 3 sec) 
Heartbeat CPU  0 instructions:  326000000 cycles:  259521001 heartbeat IPC: 1.50770 cumulative IPC: 1.04536 (Simulation time: 0 hr 11 min 5 sec) 
Heartbeat CPU  0 instructions:  327000001 cycles:  260387699 heartbeat IPC: 1.15381 cumulative IPC: 1.04580 (Simulation time: 0 hr 11 min 7 sec) 
Heartbeat CPU  0 instructions:  328000000 cycles:  261703144 heartbeat IPC: 0.76020 cumulative IPC: 1.04408 (Simulation time: 0 hr 11 min 10 sec) 
Heartbeat CPU  0 instructions:  329000000 cycles:  263037238 heartbeat IPC: 0.74957 cumulative IPC: 1.04229 (Simulation time: 0 hr 11 min 12 sec) 
Heartbeat CPU  0 instructions:  330000000 cycles:  264420597 heartbeat IPC: 0.72288 cumulative IPC: 1.04029 (Simulation time: 0 hr 11 min 14 sec) 
Heartbeat CPU  0 instructions:  331000003 cycles:  265266397 heartbeat IPC: 1.18232 cumulative IPC: 1.04083 (Simulation time: 0 hr 11 min 16 sec) 
Heartbeat CPU  0 instructions:  332000000 cycles:  265931975 heartbeat IPC: 1.50245 cumulative IPC: 1.04221 (Simulation time: 0 hr 11 min 18 sec) 
Heartbeat CPU  0 instructions:  333000000 cycles:  266832878 heartbeat IPC: 1.11000 cumulative IPC: 1.04249 (Simulation time: 0 hr 11 min 21 sec) 
Heartbeat CPU  0 instructions:  334000002 cycles:  268214811 heartbeat IPC: 0.72363 cumulative IPC: 1.04053 (Simulation time: 0 hr 11 min 23 sec) 
Heartbeat CPU  0 instructions:  335000002 cycles:  269625000 heartbeat IPC: 0.70912 cumulative IPC: 1.03846 (Simulation time: 0 hr 11 min 25 sec) 
Heartbeat CPU  0 instructions:  336000000 cycles:  270864761 heartbeat IPC: 0.80661 cumulative IPC: 1.03720 (Simulation time: 0 hr 11 min 28 sec) 
Heartbeat CPU  0 instructions:  337000003 cycles:  271713248 heartbeat IPC: 1.17857 cumulative IPC: 1.03772 (Simulation time: 0 hr 11 min 30 sec) 
Heartbeat CPU  0 instructions:  338000000 cycles:  272439274 heartbeat IPC: 1.37736 cumulative IPC: 1.03880 (Simulation time: 0 hr 11 min 32 sec) 
Heartbeat CPU  0 instructions:  339000001 cycles:  273095617 heartbeat IPC: 1.52360 cumulative IPC: 1.04018 (Simulation time: 0 hr 11 min 34 sec) 
Heartbeat CPU  0 instructions:  340000000 cycles:  274378239 heartbeat IPC: 0.77965 cumulative IPC: 1.03874 (Simulation time: 0 hr 11 min 37 sec) 
Heartbeat CPU  0 instructions:  341000000 cycles:  275793515 heartbeat IPC: 0.70658 cumulative IPC: 1.03672 (Simulation time: 0 hr 11 min 39 sec) 
Heartbeat CPU  0 instructions:  342000001 cycles:  277001442 heartbeat IPC: 0.82787 cumulative IPC: 1.03564 (Simulation time: 0 hr 11 min 41 sec) 
Heartbeat CPU  0 instructions:  343000001 cycles:  277775291 heartbeat IPC: 1.29224 cumulative IPC: 1.03648 (Simulation time: 0 hr 11 min 44 sec) 
Heartbeat CPU  0 instructions:  344000000 cycles:  278440485 heartbeat IPC: 1.50332 cumulative IPC: 1.03780 (Simulation time: 0 hr 11 min 46 sec) 
Heartbeat CPU  0 instructions:  345000002 cycles:  279590037 heartbeat IPC: 0.86991 cumulative IPC: 1.03699 (Simulation time: 0 hr 11 min 48 sec) 
Heartbeat CPU  0 instructions:  346000000 cycles:  280966496 heartbeat IPC: 0.72650 cumulative IPC: 1.03519 (Simulation time: 0 hr 11 min 50 sec) 
Heartbeat CPU  0 instructions:  347000000 cycles:  282316261 heartbeat IPC: 0.74087 cumulative IPC: 1.03353 (Simulation time: 0 hr 11 min 53 sec) 
Heartbeat CPU  0 instructions:  348000000 cycles:  283106319 heartbeat IPC: 1.26573 cumulative IPC: 1.03429 (Simulation time: 0 hr 11 min 55 sec) 
Heartbeat CPU  0 instructions:  349000003 cycles:  283766999 heartbeat IPC: 1.51360 cumulative IPC: 1.03561 (Simulation time: 0 hr 11 min 57 sec) 
Heartbeat CPU  0 instructions:  350000000 cycles:  284722964 heartbeat IPC: 1.04606 cumulative IPC: 1.03565 (Simulation time: 0 hr 11 min 59 sec) 
Heartbeat CPU  0 instructions:  351000000 cycles:  286069044 heartbeat IPC: 0.74290 cumulative IPC: 1.03403 (Simulation time: 0 hr 12 min 1 sec) 
Heartbeat CPU  0 instructions:  352000000 cycles:  287348390 heartbeat IPC: 0.78165 cumulative IPC: 1.03270 (Simulation time: 0 hr 12 min 4 sec) 
Heartbeat CPU  0 instructions:  353000001 cycles:  288136612 heartbeat IPC: 1.26868 cumulative IPC: 1.03346 (Simulation time: 0 hr 12 min 6 sec) 
Heartbeat CPU  0 instructions:  354000000 cycles:  288811392 heartbeat IPC: 1.48196 cumulative IPC: 1.03470 (Simulation time: 0 hr 12 min 8 sec) 
Heartbeat CPU  0 instructions:  355000002 cycles:  289803987 heartbeat IPC: 1.00746 cumulative IPC: 1.03459 (Simulation time: 0 hr 12 min 10 sec) 
Heartbeat CPU  0 instructions:  356000000 cycles:  291115324 heartbeat IPC: 0.76258 cumulative IPC: 1.03315 (Simulation time: 0 hr 12 min 12 sec) 
Heartbeat CPU  0 instructions:  357000000 cycles:  292385904 heartbeat IPC: 0.78704 cumulative IPC: 1.03189 (Simulation time: 0 hr 12 min 15 sec) 
Heartbeat CPU  0 instructions:  358000002 cycles:  293221490 heartbeat IPC: 1.19677 cumulative IPC: 1.03244 (Simulation time: 0 hr 12 min 17 sec) 
Heartbeat CPU  0 instructions:  359000000 cycles:  293881454 heartbeat IPC: 1.51523 cumulative IPC: 1.03371 (Simulation time: 0 hr 12 min 19 sec) 
Heartbeat CPU  0 instructions:  360000000 cycles:  294829245 heartbeat IPC: 1.05508 cumulative IPC: 1.03379 (Simulation time: 0 hr 12 min 21 sec) 
Heartbeat CPU  0 instructions:  361000002 cycles:  296083693 heartbeat IPC: 0.79716 cumulative IPC: 1.03262 (Simulation time: 0 hr 12 min 24 sec) 
Heartbeat CPU  0 instructions:  362000001 cycles:  297360539 heartbeat IPC: 0.78318 cumulative IPC: 1.03137 (Simulation time: 0 hr 12 min 26 sec) 
Heartbeat CPU  0 instructions:  363000002 cycles:  298492264 heartbeat IPC: 0.88361 cumulative IPC: 1.03071 (Simulation time: 0 hr 12 min 28 sec) 
Heartbeat CPU  0 instructions:  364000000 cycles:  299277710 heartbeat IPC: 1.27316 cumulative IPC: 1.03145 (Simulation time: 0 hr 12 min 30 sec) 
Heartbeat CPU  0 instructions:  365000002 cycles:  299943618 heartbeat IPC: 1.50171 cumulative IPC: 1.03268 (Simulation time: 0 hr 12 min 33 sec) 
Heartbeat CPU  0 instructions:  366000000 cycles:  301154409 heartbeat IPC: 0.82590 cumulative IPC: 1.03170 (Simulation time: 0 hr 12 min 35 sec) 
Heartbeat CPU  0 instructions:  367000000 cycles:  302585401 heartbeat IPC: 0.69882 cumulative IPC: 1.02987 (Simulation time: 0 hr 12 min 37 sec) 
Heartbeat CPU  0 instructions:  368000000 cycles:  303862968 heartbeat IPC: 0.78274 cumulative IPC: 1.02865 (Simulation time: 0 hr 12 min 39 sec) 
Heartbeat CPU  0 instructions:  369000001 cycles:  304666757 heartbeat IPC: 1.24411 cumulative IPC: 1.02932 (Simulation time: 0 hr 12 min 42 sec) 
Heartbeat CPU  0 instructions:  370000001 cycles:  305333205 heartbeat IPC: 1.50049 cumulative IPC: 1.03052 (Simulation time: 0 hr 12 min 44 sec) 
Heartbeat CPU  0 instructions:  371000000 cycles:  306539932 heartbeat IPC: 0.82869 cumulative IPC: 1.02959 (Simulation time: 0 hr 12 min 46 sec) 
Heartbeat CPU  0 instructions:  372000000 cycles:  308164779 heartbeat IPC: 0.61544 cumulative IPC: 1.02705 (Simulation time: 0 hr 12 min 49 sec) 
Heartbeat CPU  0 instructions:  373000001 cycles:  309249655 heartbeat IPC: 0.92177 cumulative IPC: 1.02662 (Simulation time: 0 hr 12 min 51 sec) 
Heartbeat CPU  0 instructions:  374000001 cycles:  309941761 heartbeat IPC: 1.44487 cumulative IPC: 1.02771 (Simulation time: 0 hr 12 min 53 sec) 
Heartbeat CPU  0 instructions:  375000000 cycles:  310596646 heartbeat IPC: 1.52698 cumulative IPC: 1.02893 (Simulation time: 0 hr 12 min 55 sec) 
Heartbeat CPU  0 instructions:  376000000 cycles:  312184679 heartbeat IPC: 0.62971 cumulative IPC: 1.02657 (Simulation time: 0 hr 12 min 57 sec) 
Heartbeat CPU  0 instructions:  377000001 cycles:  313677993 heartbeat IPC: 0.66965 cumulative IPC: 1.02460 (Simulation time: 0 hr 13 min 0 sec) 
Heartbeat CPU  0 instructions:  378000002 cycles:  314495815 heartbeat IPC: 1.22276 cumulative IPC: 1.02520 (Simulation time: 0 hr 13 min 2 sec) 
Heartbeat CPU  0 instructions:  379000001 cycles:  315164852 heartbeat IPC: 1.49468 cumulative IPC: 1.02635 (Simulation time: 0 hr 13 min 4 sec) 
Heartbeat CPU  0 instructions:  380000000 cycles:  316156500 heartbeat IPC: 1.00842 cumulative IPC: 1.02629 (Simulation time: 0 hr 13 min 6 sec) 
Heartbeat CPU  0 instructions:  381000001 cycles:  317666973 heartbeat IPC: 0.66204 cumulative IPC: 1.02428 (Simulation time: 0 hr 13 min 9 sec) 
Heartbeat CPU  0 instructions:  382000003 cycles:  318934902 heartbeat IPC: 0.78869 cumulative IPC: 1.02320 (Simulation time: 0 hr 13 min 11 sec) 
Heartbeat CPU  0 instructions:  383000000 cycles:  319722466 heartbeat IPC: 1.26973 cumulative IPC: 1.02390 (Simulation time: 0 hr 13 min 13 sec) 
Heartbeat CPU  0 instructions:  384000000 cycles:  320385982 heartbeat IPC: 1.50712 cumulative IPC: 1.02506 (Simulation time: 0 hr 13 min 15 sec) 
Heartbeat CPU  0 instructions:  385000000 cycles:  321696981 heartbeat IPC: 0.76278 cumulative IPC: 1.02382 (Simulation time: 0 hr 13 min 18 sec) 
Heartbeat CPU  0 instructions:  386000000 cycles:  323372589 heartbeat IPC: 0.59680 cumulative IPC: 1.02127 (Simulation time: 0 hr 13 min 20 sec) 
Heartbeat CPU  0 instructions:  387000000 cycles:  324532677 heartbeat IPC: 0.86200 cumulative IPC: 1.02061 (Simulation time: 0 hr 13 min 23 sec) 
Heartbeat CPU  0 instructions:  388000000 cycles:  325243767 heartbeat IPC: 1.40629 cumulative IPC: 1.02158 (Simulation time: 0 hr 13 min 25 sec) 
Heartbeat CPU  0 instructions:  389000000 cycles:  325898892 heartbeat IPC: 1.52643 cumulative IPC: 1.02275 (Simulation time: 0 hr 13 min 27 sec) 
Heartbeat CPU  0 instructions:  390000003 cycles:  327462842 heartbeat IPC: 0.63941 cumulative IPC: 1.02064 (Simulation time: 0 hr 13 min 29 sec) 
Heartbeat CPU  0 instructions:  391000003 cycles:  329095006 heartbeat IPC: 0.61268 cumulative IPC: 1.01831 (Simulation time: 0 hr 13 min 32 sec) 
Heartbeat CPU  0 instructions:  392000000 cycles:  329994264 heartbeat IPC: 1.11202 cumulative IPC: 1.01861 (Simulation time: 0 hr 13 min 34 sec) 
Heartbeat CPU  0 instructions:  393000001 cycles:  330654284 heartbeat IPC: 1.51511 cumulative IPC: 1.01975 (Simulation time: 0 hr 13 min 36 sec) 
Heartbeat CPU  0 instructions:  394000002 cycles:  331587349 heartbeat IPC: 1.07174 cumulative IPC: 1.01992 (Simulation time: 0 hr 13 min 38 sec) 
Heartbeat CPU  0 instructions:  395000002 cycles:  333171702 heartbeat IPC: 0.63117 cumulative IPC: 1.01779 (Simulation time: 0 hr 13 min 41 sec) 
Heartbeat CPU  0 instructions:  396000000 cycles:  334690797 heartbeat IPC: 0.65829 cumulative IPC: 1.01592 (Simulation time: 0 hr 13 min 43 sec) 
Heartbeat CPU  0 instructions:  397000000 cycles:  335608702 heartbeat IPC: 1.08944 cumulative IPC: 1.01615 (Simulation time: 0 hr 13 min 45 sec) 
Heartbeat CPU  0 instructions:  398000001 cycles:  336401479 heartbeat IPC: 1.26139 cumulative IPC: 1.01681 (Simulation time: 0 hr 13 min 47 sec) 
Heartbeat CPU  0 instructions:  399000000 cycles:  337065296 heartbeat IPC: 1.50644 cumulative IPC: 1.01792 (Simulation time: 0 hr 13 min 50 sec) 
Heartbeat CPU  0 instructions:  400000000 cycles:  338027308 heartbeat IPC: 1.03949 cumulative IPC: 1.01799 (Simulation time: 0 hr 13 min 52 sec) 
Heartbeat CPU  0 instructions:  401000002 cycles:  339484525 heartbeat IPC: 0.68624 cumulative IPC: 1.01636 (Simulation time: 0 hr 13 min 54 sec) 
Heartbeat CPU  0 instructions:  402000003 cycles:  340876316 heartbeat IPC: 0.71850 cumulative IPC: 1.01496 (Simulation time: 0 hr 13 min 56 sec) 
Heartbeat CPU  0 instructions:  403000002 cycles:  341910739 heartbeat IPC: 0.96672 cumulative IPC: 1.01480 (Simulation time: 0 hr 13 min 59 sec) 
Heartbeat CPU  0 instructions:  404000000 cycles:  342604329 heartbeat IPC: 1.44177 cumulative IPC: 1.01579 (Simulation time: 0 hr 14 min 1 sec) 
Heartbeat CPU  0 instructions:  405000001 cycles:  343308986 heartbeat IPC: 1.41913 cumulative IPC: 1.01673 (Simulation time: 0 hr 14 min 3 sec) 
Heartbeat CPU  0 instructions:  406000003 cycles:  344836879 heartbeat IPC: 0.65450 cumulative IPC: 1.01490 (Simulation time: 0 hr 14 min 6 sec) 
Heartbeat CPU  0 instructions:  407000000 cycles:  346249078 heartbeat IPC: 0.70811 cumulative IPC: 1.01347 (Simulation time: 0 hr 14 min 8 sec) 
Heartbeat CPU  0 instructions:  408000000 cycles:  347380271 heartbeat IPC: 0.88402 cumulative IPC: 1.01299 (Simulation time: 0 hr 14 min 10 sec) 
Heartbeat CPU  0 instructions:  409000001 cycles:  348139357 heartbeat IPC: 1.31738 cumulative IPC: 1.01374 (Simulation time: 0 hr 14 min 12 sec) 
Heartbeat CPU  0 instructions:  410000002 cycles:  348794407 heartbeat IPC: 1.52660 cumulative IPC: 1.01484 (Simulation time: 0 hr 14 min 15 sec) 
Heartbeat CPU  0 instructions:  411000001 cycles:  350153038 heartbeat IPC: 0.73603 cumulative IPC: 1.01361 (Simulation time: 0 hr 14 min 17 sec) 
Heartbeat CPU  0 instructions:  412000000 cycles:  351681559 heartbeat IPC: 0.65423 cumulative IPC: 1.01183 (Simulation time: 0 hr 14 min 19 sec) 
Heartbeat CPU  0 instructions:  413000001 cycles:  352871891 heartbeat IPC: 0.84010 cumulative IPC: 1.01117 (Simulation time: 0 hr 14 min 21 sec) 
Heartbeat CPU  0 instructions:  414000001 cycles:  353662439 heartbeat IPC: 1.26495 cumulative IPC: 1.01181 (Simulation time: 0 hr 14 min 24 sec) 
Heartbeat CPU  0 instructions:  415000000 cycles:  354321513 heartbeat IPC: 1.51728 cumulative IPC: 1.01288 (Simulation time: 0 hr 14 min 26 sec) 
Heartbeat CPU  0 instructions:  416000000 cycles:  355551932 heartbeat IPC: 0.81273 cumulative IPC: 1.01210 (Simulation time: 0 hr 14 min 28 sec) 
Heartbeat CPU  0 instructions:  417000003 cycles:  356961871 heartbeat IPC: 0.70925 cumulative IPC: 1.01073 (Simulation time: 0 hr 14 min 30 sec) 
Heartbeat CPU  0 instructions:  418000001 cycles:  358407445 heartbeat IPC: 0.69177 cumulative IPC: 1.00927 (Simulation time: 0 hr 14 min 33 sec) 
Heartbeat CPU  0 instructions:  419000000 cycles:  359565955 heartbeat IPC: 0.86318 cumulative IPC: 1.00874 (Simulation time: 0 hr 14 min 35 sec) 
Heartbeat CPU  0 instructions:  420000000 cycles:  360342267 heartbeat IPC: 1.28814 cumulative IPC: 1.00942 (Simulation time: 0 hr 14 min 37 sec) 
Heartbeat CPU  0 instructions:  421000001 cycles:  361006933 heartbeat IPC: 1.50452 cumulative IPC: 1.01046 (Simulation time: 0 hr 14 min 39 sec) 
Heartbeat CPU  0 instructions:  422000000 cycles:  362201672 heartbeat IPC: 0.83700 cumulative IPC: 1.00981 (Simulation time: 0 hr 14 min 42 sec) 
Heartbeat CPU  0 instructions:  423000000 cycles:  363440721 heartbeat IPC: 0.80707 cumulative IPC: 1.00902 (Simulation time: 0 hr 14 min 44 sec) 
Heartbeat CPU  0 instructions:  424000000 cycles:  364672608 heartbeat IPC: 0.81176 cumulative IPC: 1.00827 (Simulation time: 0 hr 14 min 46 sec) 
Heartbeat CPU  0 instructions:  425000001 cycles:  365967542 heartbeat IPC: 0.77224 cumulative IPC: 1.00732 (Simulation time: 0 hr 14 min 48 sec) 
Heartbeat CPU  0 instructions:  426000001 cycles:  366895952 heartbeat IPC: 1.07711 cumulative IPC: 1.00752 (Simulation time: 0 hr 14 min 50 sec) 
Heartbeat CPU  0 instructions:  427000000 cycles:  367574703 heartbeat IPC: 1.47329 cumulative IPC: 1.00849 (Simulation time: 0 hr 14 min 53 sec) 
Heartbeat CPU  0 instructions:  428000000 cycles:  368403268 heartbeat IPC: 1.20691 cumulative IPC: 1.00900 (Simulation time: 0 hr 14 min 55 sec) 
Heartbeat CPU  0 instructions:  429000002 cycles:  369661111 heartbeat IPC: 0.79501 cumulative IPC: 1.00817 (Simulation time: 0 hr 14 min 57 sec) 
Heartbeat CPU  0 instructions:  430000001 cycles:  370902031 heartbeat IPC: 0.80585 cumulative IPC: 1.00741 (Simulation time: 0 hr 15 min 0 sec) 
Heartbeat CPU  0 instructions:  431000001 cycles:  372122523 heartbeat IPC: 0.81934 cumulative IPC: 1.00671 (Simulation time: 0 hr 15 min 2 sec) 
Heartbeat CPU  0 instructions:  432000000 cycles:  373265186 heartbeat IPC: 0.87515 cumulative IPC: 1.00625 (Simulation time: 0 hr 15 min 4 sec) 
Heartbeat CPU  0 instructions:  433000003 cycles:  374021642 heartbeat IPC: 1.32196 cumulative IPC: 1.00698 (Simulation time: 0 hr 15 min 6 sec) 
Heartbeat CPU  0 instructions:  434000003 cycles:  374677822 heartbeat IPC: 1.52397 cumulative IPC: 1.00800 (Simulation time: 0 hr 15 min 9 sec) 
Heartbeat CPU  0 instructions:  435000000 cycles:  375819080 heartbeat IPC: 0.87622 cumulative IPC: 1.00755 (Simulation time: 0 hr 15 min 11 sec) 
Heartbeat CPU  0 instructions:  436000000 cycles:  377039717 heartbeat IPC: 0.81924 cumulative IPC: 1.00686 (Simulation time: 0 hr 15 min 13 sec) 
Heartbeat CPU  0 instructions:  437000002 cycles:  378286465 heartbeat IPC: 0.80209 cumulative IPC: 1.00610 (Simulation time: 0 hr 15 min 15 sec) 
Heartbeat CPU  0 instructions:  438000000 cycles:  379404238 heartbeat IPC: 0.89463 cumulative IPC: 1.00573 (Simulation time: 0 hr 15 min 18 sec) 
Heartbeat CPU  0 instructions:  439000002 cycles:  380147715 heartbeat IPC: 1.34503 cumulative IPC: 1.00647 (Simulation time: 0 hr 15 min 20 sec) 
Heartbeat CPU  0 instructions:  440000000 cycles:  380805089 heartbeat IPC: 1.52120 cumulative IPC: 1.00748 (Simulation time: 0 hr 15 min 22 sec) 
Heartbeat CPU  0 instructions:  441000002 cycles:  381928194 heartbeat IPC: 0.89039 cumulative IPC: 1.00709 (Simulation time: 0 hr 15 min 24 sec) 
Heartbeat CPU  0 instructions:  442000000 cycles:  383150083 heartbeat IPC: 0.81840 cumulative IPC: 1.00641 (Simulation time: 0 hr 15 min 26 sec) 
Heartbeat CPU  0 instructions:  443000002 cycles:  384395956 heartbeat IPC: 0.80265 cumulative IPC: 1.00567 (Simulation time: 0 hr 15 min 29 sec) 
Heartbeat CPU  0 instructions:  444000000 cycles:  385509741 heartbeat IPC: 0.89784 cumulative IPC: 1.00532 (Simulation time: 0 hr 15 min 31 sec) 
Heartbeat CPU  0 instructions:  445000000 cycles:  386248936 heartbeat IPC: 1.35282 cumulative IPC: 1.00606 (Simulation time: 0 hr 15 min 33 sec) 
Heartbeat CPU  0 instructions:  446000001 cycles:  386909572 heartbeat IPC: 1.51369 cumulative IPC: 1.00704 (Simulation time: 0 hr 15 min 35 sec) 
Heartbeat CPU  0 instructions:  447000003 cycles:  388093506 heartbeat IPC: 0.84464 cumulative IPC: 1.00648 (Simulation time: 0 hr 15 min 37 sec) 
Heartbeat CPU  0 instructions:  448000000 cycles:  389321864 heartbeat IPC: 0.81409 cumulative IPC: 1.00580 (Simulation time: 0 hr 15 min 40 sec) 
Heartbeat CPU  0 instructions:  449000001 cycles:  390540812 heartbeat IPC: 0.82038 cumulative IPC: 1.00515 (Simulation time: 0 hr 15 min 42 sec) 
Heartbeat CPU  0 instructions:  450000000 cycles:  391786900 heartbeat IPC: 0.80251 cumulative IPC: 1.00442 (Simulation time: 0 hr 15 min 44 sec) 
Heartbeat CPU  0 instructions:  451000003 cycles:  392665567 heartbeat IPC: 1.13809 cumulative IPC: 1.00476 (Simulation time: 0 hr 15 min 46 sec) 
Heartbeat CPU  0 instructions:  452000000 cycles:  393327929 heartbeat IPC: 1.50974 cumulative IPC: 1.00572 (Simulation time: 0 hr 15 min 48 sec) 
Heartbeat CPU  0 instructions:  453000000 cycles:  394170762 heartbeat IPC: 1.18647 cumulative IPC: 1.00615 (Simulation time: 0 hr 15 min 51 sec) 
Heartbeat CPU  0 instructions:  454000002 cycles:  395384074 heartbeat IPC: 0.82419 cumulative IPC: 1.00552 (Simulation time: 0 hr 15 min 53 sec) 
Heartbeat CPU  0 instructions:  455000002 cycles:  396620761 heartbeat IPC: 0.80861 cumulative IPC: 1.00483 (Simulation time: 0 hr 15 min 55 sec) 
Heartbeat CPU  0 instructions:  456000000 cycles:  397808053 heartbeat IPC: 0.84225 cumulative IPC: 1.00429 (Simulation time: 0 hr 15 min 57 sec) 
Heartbeat CPU  0 instructions:  457000003 cycles:  398904201 heartbeat IPC: 0.91229 cumulative IPC: 1.00401 (Simulation time: 0 hr 15 min 59 sec) 
Heartbeat CPU  0 instructions:  458000001 cycles:  399689417 heartbeat IPC: 1.27353 cumulative IPC: 1.00460 (Simulation time: 0 hr 16 min 2 sec) 
Heartbeat CPU  0 instructions:  459000000 cycles:  400352774 heartbeat IPC: 1.50748 cumulative IPC: 1.00553 (Simulation time: 0 hr 16 min 4 sec) 
Heartbeat CPU  0 instructions:  460000000 cycles:  401485608 heartbeat IPC: 0.88274 cumulative IPC: 1.00515 (Simulation time: 0 hr 16 min 6 sec) 
Heartbeat CPU  0 instructions:  461000002 cycles:  402723256 heartbeat IPC: 0.80799 cumulative IPC: 1.00447 (Simulation time: 0 hr 16 min 8 sec) 
Heartbeat CPU  0 instructions:  462000000 cycles:  403913511 heartbeat IPC: 0.84015 cumulative IPC: 1.00392 (Simulation time: 0 hr 16 min 11 sec) 
Heartbeat CPU  0 instructions:  463000003 cycles:  405035882 heartbeat IPC: 0.89097 cumulative IPC: 1.00357 (Simulation time: 0 hr 16 min 13 sec) 
Heartbeat CPU  0 instructions:  464000000 cycles:  405782171 heartbeat IPC: 1.33996 cumulative IPC: 1.00427 (Simulation time: 0 hr 16 min 15 sec) 
Heartbeat CPU  0 instructions:  465000000 cycles:  406437453 heartbeat IPC: 1.52606 cumulative IPC: 1.00521 (Simulation time: 0 hr 16 min 17 sec) 
Heartbeat CPU  0 instructions:  466000002 cycles:  407537733 heartbeat IPC: 0.90886 cumulative IPC: 1.00492 (Simulation time: 0 hr 16 min 19 sec) 
Heartbeat CPU  0 instructions:  467000002 cycles:  408767063 heartbeat IPC: 0.81345 cumulative IPC: 1.00427 (Simulation time: 0 hr 16 min 21 sec) 
Heartbeat CPU  0 instructions:  468000000 cycles:  410017047 heartbeat IPC: 0.80001 cumulative IPC: 1.00358 (Simulation time: 0 hr 16 min 24 sec) 
Heartbeat CPU  0 instructions:  469000001 cycles:  410925417 heartbeat IPC: 1.10087 cumulative IPC: 1.00382 (Simulation time: 0 hr 16 min 26 sec) 
Heartbeat CPU  0 instructions:  470000002 cycles:  411603527 heartbeat IPC: 1.47469 cumulative IPC: 1.00468 (Simulation time: 0 hr 16 min 28 sec) 
Heartbeat CPU  0 instructions:  471000001 cycles:  412380596 heartbeat IPC: 1.28689 cumulative IPC: 1.00528 (Simulation time: 0 hr 16 min 30 sec) 
Heartbeat CPU  0 instructions:  472000000 cycles:  413612421 heartbeat IPC: 0.81180 cumulative IPC: 1.00463 (Simulation time: 0 hr 16 min 32 sec) 
Heartbeat CPU  0 instructions:  473000003 cycles:  414829669 heartbeat IPC: 0.82153 cumulative IPC: 1.00403 (Simulation time: 0 hr 16 min 35 sec) 
Heartbeat CPU  0 instructions:  474000003 cycles:  415961921 heartbeat IPC: 0.88320 cumulative IPC: 1.00367 (Simulation time: 0 hr 16 min 37 sec) 
Heartbeat CPU  0 instructions:  475000003 cycles:  416826466 heartbeat IPC: 1.15668 cumulative IPC: 1.00402 (Simulation time: 0 hr 16 min 39 sec) 
Heartbeat CPU  0 instructions:  476000000 cycles:  417524887 heartbeat IPC: 1.43180 cumulative IPC: 1.00482 (Simulation time: 0 hr 16 min 41 sec) 
Heartbeat CPU  0 instructions:  477000000 cycles:  418179853 heartbeat IPC: 1.52680 cumulative IPC: 1.00573 (Simulation time: 0 hr 16 min 43 sec) 
Heartbeat CPU  0 instructions:  478000002 cycles:  419369997 heartbeat IPC: 0.84024 cumulative IPC: 1.00521 (Simulation time: 0 hr 16 min 45 sec) 
Heartbeat CPU  0 instructions:  479000003 cycles:  420600273 heartbeat IPC: 0.81283 cumulative IPC: 1.00458 (Simulation time: 0 hr 16 min 48 sec) 
Heartbeat CPU  0 instructions:  480000000 cycles:  421736246 heartbeat IPC: 0.88030 cumulative IPC: 1.00421 (Simulation time: 0 hr 16 min 50 sec) 
Heartbeat CPU  0 instructions:  481000002 cycles:  422546127 heartbeat IPC: 1.23475 cumulative IPC: 1.00470 (Simulation time: 0 hr 16 min 52 sec) 
Heartbeat CPU  0 instructions:  482000002 cycles:  423210793 heartbeat IPC: 1.50452 cumulative IPC: 1.00557 (Simulation time: 0 hr 16 min 54 sec) 
Heartbeat CPU  0 instructions:  483000003 cycles:  424234349 heartbeat IPC: 0.97699 cumulative IPC: 1.00550 (Simulation time: 0 hr 16 min 56 sec) 
Heartbeat CPU  0 instructions:  484000000 cycles:  425428858 heartbeat IPC: 0.83716 cumulative IPC: 1.00497 (Simulation time: 0 hr 16 min 59 sec) 
Heartbeat CPU  0 instructions:  485000003 cycles:  426640083 heartbeat IPC: 0.82561 cumulative IPC: 1.00440 (Simulation time: 0 hr 17 min 1 sec) 
Heartbeat CPU  0 instructions:  486000002 cycles:  427891113 heartbeat IPC: 0.79934 cumulative IPC: 1.00374 (Simulation time: 0 hr 17 min 3 sec) 
Heartbeat CPU  0 instructions:  487000002 cycles:  428858311 heartbeat IPC: 1.03391 cumulative IPC: 1.00381 (Simulation time: 0 hr 17 min 5 sec) 
Heartbeat CPU  0 instructions:  488000000 cycles:  429535855 heartbeat IPC: 1.47592 cumulative IPC: 1.00464 (Simulation time: 0 hr 17 min 7 sec) 
Heartbeat CPU  0 instructions:  489000000 cycles:  430313418 heartbeat IPC: 1.28607 cumulative IPC: 1.00521 (Simulation time: 0 hr 17 min 10 sec) 
Heartbeat CPU  0 instructions:  490000000 cycles:  431546532 heartbeat IPC: 0.81096 cumulative IPC: 1.00459 (Simulation time: 0 hr 17 min 12 sec) 
Heartbeat CPU  0 instructions:  491000002 cycles:  432774477 heartbeat IPC: 0.81437 cumulative IPC: 1.00399 (Simulation time: 0 hr 17 min 14 sec) 
Heartbeat CPU  0 instructions:  492000000 cycles:  434035350 heartbeat IPC: 0.79310 cumulative IPC: 1.00331 (Simulation time: 0 hr 17 min 16 sec) 
Heartbeat CPU  0 instructions:  493000002 cycles:  435111587 heartbeat IPC: 0.92917 cumulative IPC: 1.00311 (Simulation time: 0 hr 17 min 18 sec) 
Heartbeat CPU  0 instructions:  494000000 cycles:  435814029 heartbeat IPC: 1.42360 cumulative IPC: 1.00386 (Simulation time: 0 hr 17 min 21 sec) 
Heartbeat CPU  0 instructions:  495000001 cycles:  436468363 heartbeat IPC: 1.52827 cumulative IPC: 1.00473 (Simulation time: 0 hr 17 min 23 sec) 
Heartbeat CPU  0 instructions:  496000000 cycles:  437692881 heartbeat IPC: 0.81665 cumulative IPC: 1.00415 (Simulation time: 0 hr 17 min 25 sec) 
Heartbeat CPU  0 instructions:  497000001 cycles:  438943153 heartbeat IPC: 0.79983 cumulative IPC: 1.00350 (Simulation time: 0 hr 17 min 27 sec) 
Heartbeat CPU  0 instructions:  498000000 cycles:  440186762 heartbeat IPC: 0.80411 cumulative IPC: 1.00288 (Simulation time: 0 hr 17 min 30 sec) 
Heartbeat CPU  0 instructions:  499000002 cycles:  441318845 heartbeat IPC: 0.88333 cumulative IPC: 1.00254 (Simulation time: 0 hr 17 min 32 sec) 
Heartbeat CPU  0 instructions:  500000000 cycles:  442126345 heartbeat IPC: 1.23839 cumulative IPC: 1.00301 (Simulation time: 0 hr 17 min 34 sec) 
Heartbeat CPU  0 instructions:  501000002 cycles:  442789770 heartbeat IPC: 1.50733 cumulative IPC: 1.00385 (Simulation time: 0 hr 17 min 36 sec) 
Heartbeat CPU  0 instructions:  502000000 cycles:  443935278 heartbeat IPC: 0.87297 cumulative IPC: 1.00348 (Simulation time: 0 hr 17 min 39 sec) 
Heartbeat CPU  0 instructions:  503000000 cycles:  445128647 heartbeat IPC: 0.83796 cumulative IPC: 1.00299 (Simulation time: 0 hr 17 min 41 sec) 
Heartbeat CPU  0 instructions:  504000000 cycles:  446395304 heartbeat IPC: 0.78948 cumulative IPC: 1.00232 (Simulation time: 0 hr 17 min 43 sec) 
Heartbeat CPU  0 instructions:  505000000 cycles:  447649721 heartbeat IPC: 0.79718 cumulative IPC: 1.00168 (Simulation time: 0 hr 17 min 45 sec) 
Heartbeat CPU  0 instructions:  506000001 cycles:  448665618 heartbeat IPC: 0.98435 cumulative IPC: 1.00164 (Simulation time: 0 hr 17 min 48 sec) 
Heartbeat CPU  0 instructions:  507000000 cycles:  449335176 heartbeat IPC: 1.49352 cumulative IPC: 1.00245 (Simulation time: 0 hr 17 min 50 sec) 
Heartbeat CPU  0 instructions:  508000000 cycles:  450153642 heartbeat IPC: 1.22180 cumulative IPC: 1.00289 (Simulation time: 0 hr 17 min 52 sec) 
Heartbeat CPU  0 instructions:  509000003 cycles:  451417723 heartbeat IPC: 0.79109 cumulative IPC: 1.00223 (Simulation time: 0 hr 17 min 54 sec) 
Heartbeat CPU  0 instructions:  510000002 cycles:  452620521 heartbeat IPC: 0.83139 cumulative IPC: 1.00173 (Simulation time: 0 hr 17 min 56 sec) 
Heartbeat CPU  0 instructions:  511000001 cycles:  453864333 heartbeat IPC: 0.80398 cumulative IPC: 1.00113 (Simulation time: 0 hr 17 min 59 sec) 
Heartbeat CPU  0 instructions:  512000000 cycles:  455161276 heartbeat IPC: 0.77104 cumulative IPC: 1.00041 (Simulation time: 0 hr 18 min 1 sec) 
Heartbeat CPU  0 instructions:  513000000 cycles:  456041216 heartbeat IPC: 1.13644 cumulative IPC: 1.00070 (Simulation time: 0 hr 18 min 3 sec) 
Heartbeat CPU  0 instructions:  514000000 cycles:  456711063 heartbeat IPC: 1.49288 cumulative IPC: 1.00149 (Simulation time: 0 hr 18 min 5 sec) 
Heartbeat CPU  0 instructions:  515000000 cycles:  457663174 heartbeat IPC: 1.05030 cumulative IPC: 1.00161 (Simulation time: 0 hr 18 min 7 sec) 
Heartbeat CPU  0 instructions:  516000000 cycles:  458911858 heartbeat IPC: 0.80084 cumulative IPC: 1.00100 (Simulation time: 0 hr 18 min 10 sec) 
Heartbeat CPU  0 instructions:  517000000 cycles:  460083631 heartbeat IPC: 0.85341 cumulative IPC: 1.00059 (Simulation time: 0 hr 18 min 12 sec) 
Heartbeat CPU  0 instructions:  518000003 cycles:  461322765 heartbeat IPC: 0.80702 cumulative IPC: 1.00001 (Simulation time: 0 hr 18 min 14 sec) 
Heartbeat CPU  0 instructions:  519000002 cycles:  462559362 heartbeat IPC: 0.80867 cumulative IPC: 0.99945 (Simulation time: 0 hr 18 min 16 sec) 
Heartbeat CPU  0 instructions:  520000000 cycles:  463410733 heartbeat IPC: 1.17457 cumulative IPC: 0.99980 (Simulation time: 0 hr 18 min 18 sec) 
Heartbeat CPU  0 instructions:  521000001 cycles:  464074301 heartbeat IPC: 1.50701 cumulative IPC: 1.00060 (Simulation time: 0 hr 18 min 20 sec) 
Heartbeat CPU  0 instructions:  522000001 cycles:  465092940 heartbeat IPC: 0.98170 cumulative IPC: 1.00056 (Simulation time: 0 hr 18 min 23 sec) 
Heartbeat CPU  0 instructions:  523000000 cycles:  466319246 heartbeat IPC: 0.81546 cumulative IPC: 1.00002 (Simulation time: 0 hr 18 min 25 sec) 
Heartbeat CPU  0 instructions:  524000000 cycles:  467466705 heartbeat IPC: 0.87149 cumulative IPC: 0.99967 (Simulation time: 0 hr 18 min 27 sec) 
Heartbeat CPU  0 instructions:  525000001 cycles:  468726160 heartbeat IPC: 0.79400 cumulative IPC: 0.99907 (Simulation time: 0 hr 18 min 29 sec) 
Heartbeat CPU  0 instructions:  526000000 cycles:  469900780 heartbeat IPC: 0.85134 cumulative IPC: 0.99866 (Simulation time: 0 hr 18 min 32 sec) 
Heartbeat CPU  0 instructions:  527000002 cycles:  470729229 heartbeat IPC: 1.20708 cumulative IPC: 0.99906 (Simulation time: 0 hr 18 min 34 sec) 
Heartbeat CPU  0 instructions:  528000000 cycles:  471391005 heartbeat IPC: 1.51108 cumulative IPC: 0.99985 (Simulation time: 0 hr 18 min 36 sec) 
Heartbeat CPU  0 instructions:  529000003 cycles:  472477957 heartbeat IPC: 0.92001 cumulative IPC: 0.99965 (Simulation time: 0 hr 18 min 38 sec) 
Heartbeat CPU  0 instructions:  530000003 cycles:  473681384 heartbeat IPC: 0.83096 cumulative IPC: 0.99918 (Simulation time: 0 hr 18 min 40 sec) 
Heartbeat CPU  0 instructions:  531000002 cycles:  474848759 heartbeat IPC: 0.85662 cumulative IPC: 0.99879 (Simulation time: 0 hr 18 min 43 sec) 
Heartbeat CPU  0 instructions:  532000000 cycles:  476103951 heartbeat IPC: 0.79669 cumulative IPC: 0.99821 (Simulation time: 0 hr 18 min 45 sec) 
Heartbeat CPU  0 instructions:  533000000 cycles:  477309541 heartbeat IPC: 0.82947 cumulative IPC: 0.99774 (Simulation time: 0 hr 18 min 47 sec) 
[...]
Heartbeat CPU  0 instructions:  487000000 cycles: 2435042863 heartbeat IPC: 0.53096 cumulative IPC: 0.16636 (Simulation time: 0 hr 40 min 23 sec) 
Heartbeat CPU  0 instructions:  488000000 cycles: 2436753710 heartbeat IPC: 0.58451 cumulative IPC: 0.16667 (Simulation time: 0 hr 40 min 27 sec) 
Heartbeat CPU  0 instructions:  489000003 cycles: 2438810281 heartbeat IPC: 0.48625 cumulative IPC: 0.16695 (Simulation time: 0 hr 40 min 30 sec) 
Heartbeat CPU  0 instructions:  490000001 cycles: 2440791974 heartbeat IPC: 0.50462 cumulative IPC: 0.16724 (Simulation time: 0 hr 40 min 34 sec) 
Heartbeat CPU  0 instructions:  491000002 cycles: 2442632817 heartbeat IPC: 0.54323 cumulative IPC: 0.16753 (Simulation time: 0 hr 40 min 37 sec) 
Heartbeat CPU  0 instructions:  492000000 cycles: 2444520313 heartbeat IPC: 0.52980 cumulative IPC: 0.16782 (Simulation time: 0 hr 40 min 41 sec) 
Heartbeat CPU  0 instructions:  493000000 cycles: 2446389139 heartbeat IPC: 0.53510 cumulative IPC: 0.16812 (Simulation time: 0 hr 40 min 44 sec) 
Heartbeat CPU  0 instructions:  494000003 cycles: 2448310834 heartbeat IPC: 0.52038 cumulative IPC: 0.16841 (Simulation time: 0 hr 40 min 48 sec) 
Heartbeat CPU  0 instructions:  495000003 cycles: 2450193511 heartbeat IPC: 0.53116 cumulative IPC: 0.16870 (Simulation time: 0 hr 40 min 51 sec) 
Heartbeat CPU  0 instructions:  496000000 cycles: 2452102068 heartbeat IPC: 0.52395 cumulative IPC: 0.16899 (Simulation time: 0 hr 40 min 55 sec) 
Heartbeat CPU  0 instructions:  497000001 cycles: 2453985586 heartbeat IPC: 0.53092 cumulative IPC: 0.16928 (Simulation time: 0 hr 40 min 58 sec) 
Heartbeat CPU  0 instructions:  498000003 cycles: 2455891585 heartbeat IPC: 0.52466 cumulative IPC: 0.16957 (Simulation time: 0 hr 41 min 1 sec) 
Heartbeat CPU  0 instructions:  499000002 cycles: 2457839342 heartbeat IPC: 0.51341 cumulative IPC: 0.16985 (Simulation time: 0 hr 41 min 5 sec) 
Heartbeat CPU  0 instructions:  500000000 cycles: 2459951733 heartbeat IPC: 0.47340 cumulative IPC: 0.17013 (Simulation time: 0 hr 41 min 9 sec) 
Heartbeat CPU  0 instructions:  501000000 cycles: 2462153015 heartbeat IPC: 0.45428 cumulative IPC: 0.17039 (Simulation time: 0 hr 41 min 13 sec) 
Heartbeat CPU  0 instructions:  502000002 cycles: 2464030281 heartbeat IPC: 0.53269 cumulative IPC: 0.17068 (Simulation time: 0 hr 41 min 16 sec) 
Heartbeat CPU  0 instructions:  503000001 cycles: 2465914529 heartbeat IPC: 0.53072 cumulative IPC: 0.17097 (Simulation time: 0 hr 41 min 20 sec) 
Heartbeat CPU  0 instructions:  504000000 cycles: 2468075226 heartbeat IPC: 0.46281 cumulative IPC: 0.17124 (Simulation time: 0 hr 41 min 24 sec) 
Heartbeat CPU  0 instructions:  505000003 cycles: 2470432495 heartbeat IPC: 0.42422 cumulative IPC: 0.17149 (Simulation time: 0 hr 41 min 28 sec) 
Heartbeat CPU  0 instructions:  506000000 cycles: 2472479474 heartbeat IPC: 0.48852 cumulative IPC: 0.17176 (Simulation time: 0 hr 41 min 32 sec) 
Heartbeat CPU  0 instructions:  507000003 cycles: 2474535482 heartbeat IPC: 0.48638 cumulative IPC: 0.17204 (Simulation time: 0 hr 41 min 36 sec) 
Heartbeat CPU  0 instructions:  508000000 cycles: 2476513606 heartbeat IPC: 0.50553 cumulative IPC: 0.17231 (Simulation time: 0 hr 41 min 39 sec) 
Heartbeat CPU  0 instructions:  509000000 cycles: 2478472952 heartbeat IPC: 0.51037 cumulative IPC: 0.17259 (Simulation time: 0 hr 41 min 43 sec) 
Heartbeat CPU  0 instructions:  510000000 cycles: 2480395718 heartbeat IPC: 0.52008 cumulative IPC: 0.17288 (Simulation time: 0 hr 41 min 46 sec) 
Heartbeat CPU  0 instructions:  511000000 cycles: 2482307788 heartbeat IPC: 0.52299 cumulative IPC: 0.17316 (Simulation time: 0 hr 41 min 50 sec) 
Heartbeat CPU  0 instructions:  512000000 cycles: 2484230775 heartbeat IPC: 0.52002 cumulative IPC: 0.17344 (Simulation time: 0 hr 41 min 53 sec) 
Heartbeat CPU  0 instructions:  513000003 cycles: 2486178168 heartbeat IPC: 0.51351 cumulative IPC: 0.17372 (Simulation time: 0 hr 41 min 57 sec) 
Heartbeat CPU  0 instructions:  514000000 cycles: 2488342568 heartbeat IPC: 0.46202 cumulative IPC: 0.17398 (Simulation time: 0 hr 42 min 1 sec) 
Heartbeat CPU  0 instructions:  515000001 cycles: 2490323627 heartbeat IPC: 0.50478 cumulative IPC: 0.17425 (Simulation time: 0 hr 42 min 5 sec) 
Heartbeat CPU  0 instructions:  516000000 cycles: 2492317121 heartbeat IPC: 0.50163 cumulative IPC: 0.17453 (Simulation time: 0 hr 42 min 8 sec) 
Heartbeat CPU  0 instructions:  517000002 cycles: 2494502448 heartbeat IPC: 0.45760 cumulative IPC: 0.17479 (Simulation time: 0 hr 42 min 12 sec) 
Heartbeat CPU  0 instructions:  518000000 cycles: 2496457486 heartbeat IPC: 0.51150 cumulative IPC: 0.17506 (Simulation time: 0 hr 42 min 16 sec) 
Heartbeat CPU  0 instructions:  519000001 cycles: 2498364268 heartbeat IPC: 0.52444 cumulative IPC: 0.17534 (Simulation time: 0 hr 42 min 19 sec) 
Heartbeat CPU  0 instructions:  520000000 cycles: 2500249214 heartbeat IPC: 0.53052 cumulative IPC: 0.17562 (Simulation time: 0 hr 42 min 23 sec) 
Heartbeat CPU  0 instructions:  521000002 cycles: 2501984025 heartbeat IPC: 0.57643 cumulative IPC: 0.17591 (Simulation time: 0 hr 42 min 26 sec) 
Heartbeat CPU  0 instructions:  522000001 cycles: 2503855096 heartbeat IPC: 0.53445 cumulative IPC: 0.17619 (Simulation time: 0 hr 42 min 30 sec) 
Heartbeat CPU  0 instructions:  523000001 cycles: 2505772174 heartbeat IPC: 0.52163 cumulative IPC: 0.17647 (Simulation time: 0 hr 42 min 33 sec) 
Heartbeat CPU  0 instructions:  524000000 cycles: 2507715467 heartbeat IPC: 0.51459 cumulative IPC: 0.17674 (Simulation time: 0 hr 42 min 37 sec) 
Heartbeat CPU  0 instructions:  525000001 cycles: 2509632980 heartbeat IPC: 0.52151 cumulative IPC: 0.17702 (Simulation time: 0 hr 42 min 40 sec) 
Heartbeat CPU  0 instructions:  526000000 cycles: 2511632523 heartbeat IPC: 0.50011 cumulative IPC: 0.17729 (Simulation time: 0 hr 42 min 44 sec) 
Heartbeat CPU  0 instructions:  527000001 cycles: 2513617141 heartbeat IPC: 0.50388 cumulative IPC: 0.17756 (Simulation time: 0 hr 42 min 47 sec) 
Heartbeat CPU  0 instructions:  528000000 cycles: 2515645237 heartbeat IPC: 0.49307 cumulative IPC: 0.17782 (Simulation time: 0 hr 42 min 51 sec) 
Heartbeat CPU  0 instructions:  529000000 cycles: 2517506070 heartbeat IPC: 0.53739 cumulative IPC: 0.17810 (Simulation time: 0 hr 42 min 54 sec) 
Heartbeat CPU  0 instructions:  530000000 cycles: 2519434747 heartbeat IPC: 0.51849 cumulative IPC: 0.17837 (Simulation time: 0 hr 42 min 58 sec) 
Heartbeat CPU  0 instructions:  531000001 cycles: 2521349341 heartbeat IPC: 0.52230 cumulative IPC: 0.17865 (Simulation time: 0 hr 43 min 2 sec) 
Heartbeat CPU  0 instructions:  532000000 cycles: 2523410205 heartbeat IPC: 0.48523 cumulative IPC: 0.17891 (Simulation time: 0 hr 43 min 5 sec) 
Heartbeat CPU  0 instructions:  533000000 cycles: 2525177637 heartbeat IPC: 0.56579 cumulative IPC: 0.17919 (Simulation time: 0 hr 43 min 9 sec) 
Heartbeat CPU  0 instructions:  534000000 cycles: 2527343092 heartbeat IPC: 0.46180 cumulative IPC: 0.17944 (Simulation time: 0 hr 43 min 13 sec) 
Heartbeat CPU  0 instructions:  535000002 cycles: 2529021726 heartbeat IPC: 0.59572 cumulative IPC: 0.17973 (Simulation time: 0 hr 43 min 16 sec) 
Heartbeat CPU  0 instructions:  536000000 cycles: 2530827154 heartbeat IPC: 0.55388 cumulative IPC: 0.18001 (Simulation time: 0 hr 43 min 19 sec) 
Heartbeat CPU  0 instructions:  537000000 cycles: 2532631378 heartbeat IPC: 0.55425 cumulative IPC: 0.18029 (Simulation time: 0 hr 43 min 23 sec) 
Heartbeat CPU  0 instructions:  538000000 cycles: 2534415016 heartbeat IPC: 0.56065 cumulative IPC: 0.18057 (Simulation time: 0 hr 43 min 26 sec) 
Heartbeat CPU  0 instructions:  539000000 cycles: 2536235150 heartbeat IPC: 0.54941 cumulative IPC: 0.18085 (Simulation time: 0 hr 43 min 29 sec) 
Heartbeat CPU  0 instructions:  540000000 cycles: 2537892219 heartbeat IPC: 0.60348 cumulative IPC: 0.18113 (Simulation time: 0 hr 43 min 32 sec) 
Heartbeat CPU  0 instructions:  541000003 cycles: 2539927183 heartbeat IPC: 0.49141 cumulative IPC: 0.18139 (Simulation time: 0 hr 43 min 36 sec) 
Heartbeat CPU  0 instructions:  542000001 cycles: 2541903329 heartbeat IPC: 0.50603 cumulative IPC: 0.18166 (Simulation time: 0 hr 43 min 40 sec) 
Heartbeat CPU  0 instructions:  543000000 cycles: 2543832201 heartbeat IPC: 0.51844 cumulative IPC: 0.18192 (Simulation time: 0 hr 43 min 43 sec) 
Heartbeat CPU  0 instructions:  544000000 cycles: 2545644922 heartbeat IPC: 0.55166 cumulative IPC: 0.18220 (Simulation time: 0 hr 43 min 47 sec) 
Heartbeat CPU  0 instructions:  545000000 cycles: 2547597831 heartbeat IPC: 0.51206 cumulative IPC: 0.18246 (Simulation time: 0 hr 43 min 50 sec) 
Heartbeat CPU  0 instructions:  546000003 cycles: 2549596410 heartbeat IPC: 0.50036 cumulative IPC: 0.18272 (Simulation time: 0 hr 43 min 54 sec) 
Heartbeat CPU  0 instructions:  547000000 cycles: 2551406604 heartbeat IPC: 0.55243 cumulative IPC: 0.18300 (Simulation time: 0 hr 43 min 57 sec) 
Heartbeat CPU  0 instructions:  548000000 cycles: 2553253506 heartbeat IPC: 0.54145 cumulative IPC: 0.18327 (Simulation time: 0 hr 44 min 1 sec) 
Heartbeat CPU  0 instructions:  549000000 cycles: 2555137865 heartbeat IPC: 0.53068 cumulative IPC: 0.18354 (Simulation time: 0 hr 44 min 4 sec) 
Heartbeat CPU  0 instructions:  550000000 cycles: 2557158913 heartbeat IPC: 0.49479 cumulative IPC: 0.18379 (Simulation time: 0 hr 44 min 8 sec) 
Heartbeat CPU  0 instructions:  551000003 cycles: 2559028994 heartbeat IPC: 0.53474 cumulative IPC: 0.18406 (Simulation time: 0 hr 44 min 11 sec) 
Heartbeat CPU  0 instructions:  552000000 cycles: 2560871442 heartbeat IPC: 0.54275 cumulative IPC: 0.18433 (Simulation time: 0 hr 44 min 15 sec) 
Heartbeat CPU  0 instructions:  553000000 cycles: 2562771155 heartbeat IPC: 0.52640 cumulative IPC: 0.18459 (Simulation time: 0 hr 44 min 18 sec) 
Heartbeat CPU  0 instructions:  554000002 cycles: 2564727819 heartbeat IPC: 0.51107 cumulative IPC: 0.18485 (Simulation time: 0 hr 44 min 22 sec) 
Heartbeat CPU  0 instructions:  555000002 cycles: 2566692722 heartbeat IPC: 0.50893 cumulative IPC: 0.18511 (Simulation time: 0 hr 44 min 25 sec) 
Heartbeat CPU  0 instructions:  556000000 cycles: 2568496016 heartbeat IPC: 0.55454 cumulative IPC: 0.18538 (Simulation time: 0 hr 44 min 29 sec) 
Heartbeat CPU  0 instructions:  557000001 cycles: 2570424520 heartbeat IPC: 0.51854 cumulative IPC: 0.18565 (Simulation time: 0 hr 44 min 32 sec) 
Heartbeat CPU  0 instructions:  558000003 cycles: 2572301830 heartbeat IPC: 0.53268 cumulative IPC: 0.18591 (Simulation time: 0 hr 44 min 35 sec) 
Heartbeat CPU  0 instructions:  559000002 cycles: 2574016322 heartbeat IPC: 0.58326 cumulative IPC: 0.18619 (Simulation time: 0 hr 44 min 39 sec) 
Heartbeat CPU  0 instructions:  560000000 cycles: 2575921521 heartbeat IPC: 0.52488 cumulative IPC: 0.18645 (Simulation time: 0 hr 44 min 42 sec) 
Heartbeat CPU  0 instructions:  561000003 cycles: 2577853712 heartbeat IPC: 0.51755 cumulative IPC: 0.18671 (Simulation time: 0 hr 44 min 45 sec) 
Heartbeat CPU  0 instructions:  562000001 cycles: 2579749730 heartbeat IPC: 0.52742 cumulative IPC: 0.18697 (Simulation time: 0 hr 44 min 49 sec) 
Heartbeat CPU  0 instructions:  563000001 cycles: 2581666328 heartbeat IPC: 0.52176 cumulative IPC: 0.18723 (Simulation time: 0 hr 44 min 52 sec) 
Heartbeat CPU  0 instructions:  564000000 cycles: 2583581666 heartbeat IPC: 0.52210 cumulative IPC: 0.18749 (Simulation time: 0 hr 44 min 56 sec) 
Heartbeat CPU  0 instructions:  565000002 cycles: 2585462784 heartbeat IPC: 0.53160 cumulative IPC: 0.18775 (Simulation time: 0 hr 44 min 59 sec) 
Heartbeat CPU  0 instructions:  566000003 cycles: 2587473089 heartbeat IPC: 0.49744 cumulative IPC: 0.18800 (Simulation time: 0 hr 45 min 2 sec) 
Heartbeat CPU  0 instructions:  567000000 cycles: 2589343954 heartbeat IPC: 0.53451 cumulative IPC: 0.18826 (Simulation time: 0 hr 45 min 6 sec) 
Heartbeat CPU  0 instructions:  568000000 cycles: 2591215535 heartbeat IPC: 0.53431 cumulative IPC: 0.18852 (Simulation time: 0 hr 45 min 9 sec) 
Heartbeat CPU  0 instructions:  569000000 cycles: 2593135532 heartbeat IPC: 0.52083 cumulative IPC: 0.18878 (Simulation time: 0 hr 45 min 13 sec) 
Heartbeat CPU  0 instructions:  570000001 cycles: 2595130945 heartbeat IPC: 0.50115 cumulative IPC: 0.18903 (Simulation time: 0 hr 45 min 16 sec) 
Heartbeat CPU  0 instructions:  571000000 cycles: 2596949071 heartbeat IPC: 0.55002 cumulative IPC: 0.18929 (Simulation time: 0 hr 45 min 20 sec) 
Heartbeat CPU  0 instructions:  572000000 cycles: 2598906242 heartbeat IPC: 0.51094 cumulative IPC: 0.18955 (Simulation time: 0 hr 45 min 23 sec) 
Heartbeat CPU  0 instructions:  573000001 cycles: 2600755205 heartbeat IPC: 0.54084 cumulative IPC: 0.18981 (Simulation time: 0 hr 45 min 26 sec) 
Heartbeat CPU  0 instructions:  574000000 cycles: 2602638311 heartbeat IPC: 0.53104 cumulative IPC: 0.19006 (Simulation time: 0 hr 45 min 30 sec) 
Heartbeat CPU  0 instructions:  575000003 cycles: 2604547357 heartbeat IPC: 0.52382 cumulative IPC: 0.19032 (Simulation time: 0 hr 45 min 33 sec) 
Heartbeat CPU  0 instructions:  576000000 cycles: 2606453636 heartbeat IPC: 0.52458 cumulative IPC: 0.19057 (Simulation time: 0 hr 45 min 36 sec) 
Heartbeat CPU  0 instructions:  577000000 cycles: 2608207864 heartbeat IPC: 0.57005 cumulative IPC: 0.19084 (Simulation time: 0 hr 45 min 40 sec) 
Heartbeat CPU  0 instructions:  578000002 cycles: 2610067072 heartbeat IPC: 0.53786 cumulative IPC: 0.19110 (Simulation time: 0 hr 45 min 43 sec) 
Heartbeat CPU  0 instructions:  579000003 cycles: 2611974523 heartbeat IPC: 0.52426 cumulative IPC: 0.19135 (Simulation time: 0 hr 45 min 46 sec) 
Heartbeat CPU  0 instructions:  580000000 cycles: 2613790073 heartbeat IPC: 0.55080 cumulative IPC: 0.19161 (Simulation time: 0 hr 45 min 50 sec) 
Heartbeat CPU  0 instructions:  581000001 cycles: 2615513737 heartbeat IPC: 0.58016 cumulative IPC: 0.19188 (Simulation time: 0 hr 45 min 53 sec) 
Heartbeat CPU  0 instructions:  582000000 cycles: 2617356192 heartbeat IPC: 0.54275 cumulative IPC: 0.19214 (Simulation time: 0 hr 45 min 56 sec) 
Heartbeat CPU  0 instructions:  583000000 cycles: 2619252054 heartbeat IPC: 0.52746 cumulative IPC: 0.19239 (Simulation time: 0 hr 45 min 59 sec) 
Heartbeat CPU  0 instructions:  584000000 cycles: 2621175685 heartbeat IPC: 0.51985 cumulative IPC: 0.19264 (Simulation time: 0 hr 46 min 3 sec) 
Heartbeat CPU  0 instructions:  585000001 cycles: 2623033629 heartbeat IPC: 0.53823 cumulative IPC: 0.19290 (Simulation time: 0 hr 46 min 6 sec) 
Heartbeat CPU  0 instructions:  586000001 cycles: 2624868544 heartbeat IPC: 0.54498 cumulative IPC: 0.19315 (Simulation time: 0 hr 46 min 10 sec) 
Heartbeat CPU  0 instructions:  587000001 cycles: 2626871861 heartbeat IPC: 0.49917 cumulative IPC: 0.19340 (Simulation time: 0 hr 46 min 13 sec) 
Heartbeat CPU  0 instructions:  588000000 cycles: 2628860288 heartbeat IPC: 0.50291 cumulative IPC: 0.19364 (Simulation time: 0 hr 46 min 17 sec) 
Heartbeat CPU  0 instructions:  589000002 cycles: 2630947546 heartbeat IPC: 0.47910 cumulative IPC: 0.19388 (Simulation time: 0 hr 46 min 21 sec) 
Heartbeat CPU  0 instructions:  590000001 cycles: 2632725130 heartbeat IPC: 0.56256 cumulative IPC: 0.19414 (Simulation time: 0 hr 46 min 24 sec) 
Heartbeat CPU  0 instructions:  591000001 cycles: 2634580025 heartbeat IPC: 0.53911 cumulative IPC: 0.19439 (Simulation time: 0 hr 46 min 27 sec) 
Heartbeat CPU  0 instructions:  592000000 cycles: 2636458005 heartbeat IPC: 0.53249 cumulative IPC: 0.19464 (Simulation time: 0 hr 46 min 31 sec) 
Heartbeat CPU  0 instructions:  593000000 cycles: 2638324138 heartbeat IPC: 0.53587 cumulative IPC: 0.19489 (Simulation time: 0 hr 46 min 34 sec) 
Heartbeat CPU  0 instructions:  594000003 cycles: 2640198954 heartbeat IPC: 0.53339 cumulative IPC: 0.19515 (Simulation time: 0 hr 46 min 37 sec) 
Heartbeat CPU  0 instructions:  595000000 cycles: 2642023083 heartbeat IPC: 0.54821 cumulative IPC: 0.19540 (Simulation time: 0 hr 46 min 41 sec) 
Heartbeat CPU  0 instructions:  596000000 cycles: 2643830435 heartbeat IPC: 0.55330 cumulative IPC: 0.19565 (Simulation time: 0 hr 46 min 44 sec) 
Heartbeat CPU  0 instructions:  597000001 cycles: 2645721550 heartbeat IPC: 0.52879 cumulative IPC: 0.19590 (Simulation time: 0 hr 46 min 47 sec) 
Heartbeat CPU  0 instructions:  598000001 cycles: 2647534951 heartbeat IPC: 0.55145 cumulative IPC: 0.19616 (Simulation time: 0 hr 46 min 51 sec) 
Heartbeat CPU  0 instructions:  599000003 cycles: 2649300024 heartbeat IPC: 0.56655 cumulative IPC: 0.19641 (Simulation time: 0 hr 46 min 54 sec) 
Heartbeat CPU  0 instructions:  600000000 cycles: 2651144851 heartbeat IPC: 0.54205 cumulative IPC: 0.19666 (Simulation time: 0 hr 46 min 57 sec) 
Finished CPU 0 instructions: 500000000 cycles: 2542396679 cumulative IPC: 0.19666 (Simulation time: 0 hr 46 min 57 sec) 

ChampSim completed all CPUs

[ROI Statistics]
Core_0_instructions 500000000
Core_0_cycles 2542396679
Core_0_IPC 0.19666

Core_0_branch_prediction_accuracy 95.55097
Core_0_branch_MPKI 5.00272
Core_0_average_ROB_occupancy_at_mispredict 120.35080

Core_0_L1D_total_access 237460837
Core_0_L1D_total_hit 200524794
Core_0_L1D_total_miss 36936043
Core_0_L1D_loads 154905057
Core_0_L1D_load_hit 133973462
Core_0_L1D_load_miss 20931595
Core_0_L1D_RFOs 82555780
Core_0_L1D_RFO_hit 66551332
Core_0_L1D_RFO_miss 16004448
Core_0_L1D_prefetches 0
Core_0_L1D_prefetch_hit 0
Core_0_L1D_prefetch_miss 0
Core_0_L1D_writebacks 0
Core_0_L1D_writeback_hit 0
Core_0_L1D_writeback_miss 0
Core_0_L1D_prefetch_requested 0
Core_0_L1D_prefetch_issued 0
Core_0_L1D_prefetch_useful 0
Core_0_L1D_prefetch_useless 0
Core_0_L1D_prefetch_late 0
Core_0_L1D_average_miss_latency 234.28340

Core_0_L1I_total_access 123251013
Core_0_L1I_total_hit 123250787
Core_0_L1I_total_miss 226
Core_0_L1I_loads 123251013
Core_0_L1I_load_hit 123250787
Core_0_L1I_load_miss 226
Core_0_L1I_RFOs 0
Core_0_L1I_RFO_hit 0
Core_0_L1I_RFO_miss 0
Core_0_L1I_prefetches 0
Core_0_L1I_prefetch_hit 0
Core_0_L1I_prefetch_miss 0
Core_0_L1I_writebacks 0
Core_0_L1I_writeback_hit 0
Core_0_L1I_writeback_miss 0
Core_0_L1I_prefetch_requested 0
Core_0_L1I_prefetch_issued 0
Core_0_L1I_prefetch_useful 0
Core_0_L1I_prefetch_useless 0
Core_0_L1I_prefetch_late 0
Core_0_L1I_average_miss_latency 285.54867

Core_0_L2C_total_access 91148055
Core_0_L2C_total_hit 58398799
Core_0_L2C_total_miss 32749256
Core_0_L2C_loads 20931385
Core_0_L2C_load_hit 13658977
Core_0_L2C_load_miss 7272408
Core_0_L2C_RFOs 16004444
Core_0_L2C_RFO_hit 211491
Core_0_L2C_RFO_miss 15792953
Core_0_L2C_prefetches 22104336
Core_0_L2C_prefetch_hit 12426784
Core_0_L2C_prefetch_miss 9677552
Core_0_L2C_writebacks 32107890
Core_0_L2C_writeback_hit 32101547
Core_0_L2C_writeback_miss 6343
Core_0_L2C_prefetch_requested 36542999
Core_0_L2C_prefetch_issued 36542999
Core_0_L2C_prefetch_useful 11626352
Core_0_L2C_prefetch_useless 325799
Core_0_L2C_prefetch_late 91029
Core_0_L2C_average_miss_latency 347.23186

Core_0_LLC_total_access 62263771
Core_0_LLC_total_hit 12403051
Core_0_LLC_total_miss 49860720
Core_0_LLC_loads 7181221
Core_0_LLC_load_hit 5421913
Core_0_LLC_load_miss 1759308
Core_0_LLC_RFOs 15792935
Core_0_LLC_RFO_hit 500021
Core_0_LLC_RFO_miss 15292914
Core_0_LLC_prefetches 9768570
Core_0_LLC_prefetch_hit 423324
Core_0_LLC_prefetch_miss 9345246
Core_0_LLC_writebacks 29521045
Core_0_LLC_writeback_hit 6057793
Core_0_LLC_writeback_miss 23463252
Core_0_LLC_prefetch_requested 0
Core_0_LLC_prefetch_issued 0
Core_0_LLC_prefetch_useful 18773
Core_0_LLC_prefetch_useless 11574001
Core_0_LLC_prefetch_late 0
Core_0_LLC_average_miss_latency 199.77000

Core_0_major_page_fault 0
Core_0_minor_page_fault 401483

CPU 0 L2C GHB prefetcher final stats
Channel_0_RQ_row_buffer_hit 1409012
Channel_0_RQ_row_buffer_miss 24987498
Channel_0_WQ_row_buffer_hit 2823785
Channel_0_WQ_row_buffer_miss 21662858
Channel_0_WQ_full 131
Channel_0_dbus_congested 30552494

avg_congested_cycle 11
