*************************************************
   ChampSim Multicore Out-of-Order Simulator
   Last compiled: Dec 15 2020 16:37:17
*************************************************

trace_0 traces/482.sphinx3-1100B.champsimtrace.xz
Initialize SHIP state
warmup_instructions 100000000
simulation_instructions 500000000
champsim_seed 260

num_cpus 1
cpu_freq 4000
dram_io_freq 2400
page_size 4096
block_size 64
max_read_per_cycle 8
max_fill_per_cycle 1
dram_channels 1
dram_ranks 1
dram_banks 8
dram_rows 65536
dram_columns 128
dram_row_size 8
dram_size 4096
dram_pages 1048576

fetch_width 6
decode_width 6
exec_width 4
lq_width 2
sq_width 2
retire_width 4
scheduler_size 128
branch_mispredict_penalty 20
rob_size 256
lq_size 72
sq_size 56
num_instr_destinations_sparc 4
num_instr_destinations 2
num_instr_sources 4

itlb_set 16
itlb_way 8
itlb_rq_size 16
itlb_wq_size 16
itlb_pq_size 0
itlb_mshr_size 8
itlb_latency 1

dtlb_set 16
dtlb_way 4
dtlb_rq_size 16
dtlb_wq_size 16
dtlb_pq_size 0
dtlb_mshr_size 8
dtlb_latency 1

stlb_set 128
stlb_way 12
stlb_rq_size 32
stlb_wq_size 32
stlb_pq_size 0
stlb_mshr_size 16
stlb_latency 8

l1i_size 32
l1i_set 64
l1i_way 8
l1i_rq_size 64
l1i_wq_size 64
l1i_pq_size 8
l1i_mshr_size 8
l1i_latency 1

l1d_size 32
l1d_set 64
l1d_way 8
l1d_rq_size 64
l1d_wq_size 64
l1d_pq_size 8
l1d_mshr_size 16
l1d_latency 4

l2c_size 512
l2c_set 1024
l2c_way 8
l2c_rq_size 32
l2c_wq_size 32
l2c_pq_size 16
l2c_mshr_size 32
l2c_latency 10

llc_size 2048
llc_set 2048
llc_way 16
llc_rq_size 32
llc_wq_size 32
llc_pq_size 32
llc_mshr_size 64
llc_latency 20

dram_channel_width 8
dram_wq_size 64
dram_rq_size 64
tRP 15
tRCD 15
tCAS 12.5
dram_dbus_turn_around_time 30
dram_write_high_wm 56
dram_write_low_wm 48
min_dram_writes_per_switch 16
dram_mtps 2400
dram_dbus_return_time 13


Heartbeat CPU  0 instructions:    1000001 cycles:     366324 heartbeat IPC: 2.72983 cumulative IPC: 2.72983 (Simulation time: 0 hr 0 min 1 sec) 
Heartbeat CPU  0 instructions:    2000003 cycles:     793311 heartbeat IPC: 2.34200 cumulative IPC: 2.52108 (Simulation time: 0 hr 0 min 3 sec) 
Heartbeat CPU  0 instructions:    3000001 cycles:    1250971 heartbeat IPC: 2.18502 cumulative IPC: 2.39814 (Simulation time: 0 hr 0 min 5 sec) 
Heartbeat CPU  0 instructions:    4000000 cycles:    1733366 heartbeat IPC: 2.07299 cumulative IPC: 2.30765 (Simulation time: 0 hr 0 min 6 sec) 
Heartbeat CPU  0 instructions:    5000000 cycles:    2175822 heartbeat IPC: 2.26011 cumulative IPC: 2.29798 (Simulation time: 0 hr 0 min 8 sec) 
Heartbeat CPU  0 instructions:    6000001 cycles:    2541531 heartbeat IPC: 2.73442 cumulative IPC: 2.36078 (Simulation time: 0 hr 0 min 9 sec) 
Heartbeat CPU  0 instructions:    7000000 cycles:    2931647 heartbeat IPC: 2.56334 cumulative IPC: 2.38774 (Simulation time: 0 hr 0 min 11 sec) 
Heartbeat CPU  0 instructions:    8000000 cycles:    3389873 heartbeat IPC: 2.18233 cumulative IPC: 2.35997 (Simulation time: 0 hr 0 min 13 sec) 
Heartbeat CPU  0 instructions:    9000000 cycles:    3846977 heartbeat IPC: 2.18769 cumulative IPC: 2.33950 (Simulation time: 0 hr 0 min 14 sec) 
Heartbeat CPU  0 instructions:   10000000 cycles:    4337221 heartbeat IPC: 2.03980 cumulative IPC: 2.30562 (Simulation time: 0 hr 0 min 16 sec) 
Heartbeat CPU  0 instructions:   11000001 cycles:    4708264 heartbeat IPC: 2.69511 cumulative IPC: 2.33632 (Simulation time: 0 hr 0 min 17 sec) 
Heartbeat CPU  0 instructions:   12000000 cycles:    5074234 heartbeat IPC: 2.73246 cumulative IPC: 2.36489 (Simulation time: 0 hr 0 min 19 sec) 
Heartbeat CPU  0 instructions:   13000001 cycles:    5523079 heartbeat IPC: 2.22794 cumulative IPC: 2.35376 (Simulation time: 0 hr 0 min 21 sec) 
Heartbeat CPU  0 instructions:   14000000 cycles:    5980500 heartbeat IPC: 2.18617 cumulative IPC: 2.34094 (Simulation time: 0 hr 0 min 22 sec) 
Heartbeat CPU  0 instructions:   15000000 cycles:    6462440 heartbeat IPC: 2.07495 cumulative IPC: 2.32110 (Simulation time: 0 hr 0 min 24 sec) 
Heartbeat CPU  0 instructions:   16000000 cycles:    6871810 heartbeat IPC: 2.44278 cumulative IPC: 2.32835 (Simulation time: 0 hr 0 min 25 sec) 
Heartbeat CPU  0 instructions:   17000003 cycles:    7237734 heartbeat IPC: 2.73282 cumulative IPC: 2.34880 (Simulation time: 0 hr 0 min 27 sec) 
Heartbeat CPU  0 instructions:   18000003 cycles:    7649002 heartbeat IPC: 2.43150 cumulative IPC: 2.35325 (Simulation time: 0 hr 0 min 29 sec) 
Heartbeat CPU  0 instructions:   19000003 cycles:    8106517 heartbeat IPC: 2.18572 cumulative IPC: 2.34379 (Simulation time: 0 hr 0 min 30 sec) 
Heartbeat CPU  0 instructions:   20000000 cycles:    8574233 heartbeat IPC: 2.13804 cumulative IPC: 2.33257 (Simulation time: 0 hr 0 min 32 sec) 
Heartbeat CPU  0 instructions:   21000002 cycles:    9033222 heartbeat IPC: 2.17871 cumulative IPC: 2.32475 (Simulation time: 0 hr 0 min 33 sec) 
Heartbeat CPU  0 instructions:   22000003 cycles:    9398895 heartbeat IPC: 2.73469 cumulative IPC: 2.34070 (Simulation time: 0 hr 0 min 35 sec) 
Heartbeat CPU  0 instructions:   23000001 cycles:    9778440 heartbeat IPC: 2.63473 cumulative IPC: 2.35211 (Simulation time: 0 hr 0 min 37 sec) 
Heartbeat CPU  0 instructions:   24000000 cycles:   10233435 heartbeat IPC: 2.19782 cumulative IPC: 2.34525 (Simulation time: 0 hr 0 min 38 sec) 
Heartbeat CPU  0 instructions:   25000002 cycles:   10688206 heartbeat IPC: 2.19891 cumulative IPC: 2.33903 (Simulation time: 0 hr 0 min 40 sec) 
Heartbeat CPU  0 instructions:   26000002 cycles:   11166981 heartbeat IPC: 2.08866 cumulative IPC: 2.32829 (Simulation time: 0 hr 0 min 41 sec) 
Heartbeat CPU  0 instructions:   27000001 cycles:   11559198 heartbeat IPC: 2.54961 cumulative IPC: 2.33580 (Simulation time: 0 hr 0 min 43 sec) 
Heartbeat CPU  0 instructions:   28000000 cycles:   11924986 heartbeat IPC: 2.73382 cumulative IPC: 2.34801 (Simulation time: 0 hr 0 min 45 sec) 
Heartbeat CPU  0 instructions:   29000001 cycles:   12360938 heartbeat IPC: 2.29383 cumulative IPC: 2.34610 (Simulation time: 0 hr 0 min 46 sec) 
Heartbeat CPU  0 instructions:   30000003 cycles:   12814109 heartbeat IPC: 2.20668 cumulative IPC: 2.34117 (Simulation time: 0 hr 0 min 48 sec) 
Heartbeat CPU  0 instructions:   31000001 cycles:   13267670 heartbeat IPC: 2.20477 cumulative IPC: 2.33651 (Simulation time: 0 hr 0 min 49 sec) 
Heartbeat CPU  0 instructions:   32000000 cycles:   13750920 heartbeat IPC: 2.06932 cumulative IPC: 2.32712 (Simulation time: 0 hr 0 min 51 sec) 
Heartbeat CPU  0 instructions:   33000003 cycles:   14151006 heartbeat IPC: 2.49947 cumulative IPC: 2.33199 (Simulation time: 0 hr 0 min 53 sec) 
Heartbeat CPU  0 instructions:   34000003 cycles:   14516822 heartbeat IPC: 2.73361 cumulative IPC: 2.34211 (Simulation time: 0 hr 0 min 54 sec) 
Heartbeat CPU  0 instructions:   35000000 cycles:   14943621 heartbeat IPC: 2.34302 cumulative IPC: 2.34214 (Simulation time: 0 hr 0 min 56 sec) 
Heartbeat CPU  0 instructions:   36000000 cycles:   15397150 heartbeat IPC: 2.20493 cumulative IPC: 2.33809 (Simulation time: 0 hr 0 min 57 sec) 
Heartbeat CPU  0 instructions:   37000000 cycles:   15850832 heartbeat IPC: 2.20419 cumulative IPC: 2.33426 (Simulation time: 0 hr 0 min 59 sec) 
Heartbeat CPU  0 instructions:   38000003 cycles:   16338481 heartbeat IPC: 2.05066 cumulative IPC: 2.32580 (Simulation time: 0 hr 1 min 0 sec) 
Heartbeat CPU  0 instructions:   39000003 cycles:   16745060 heartbeat IPC: 2.45955 cumulative IPC: 2.32905 (Simulation time: 0 hr 1 min 2 sec) 
Heartbeat CPU  0 instructions:   40000000 cycles:   17110930 heartbeat IPC: 2.73320 cumulative IPC: 2.33769 (Simulation time: 0 hr 1 min 4 sec) 
Heartbeat CPU  0 instructions:   41000003 cycles:   17530711 heartbeat IPC: 2.38220 cumulative IPC: 2.33875 (Simulation time: 0 hr 1 min 5 sec) 
Heartbeat CPU  0 instructions:   42000000 cycles:   17988418 heartbeat IPC: 2.18480 cumulative IPC: 2.33484 (Simulation time: 0 hr 1 min 7 sec) 
Heartbeat CPU  0 instructions:   43000001 cycles:   18444263 heartbeat IPC: 2.19373 cumulative IPC: 2.33135 (Simulation time: 0 hr 1 min 8 sec) 
Heartbeat CPU  0 instructions:   44000000 cycles:   18934223 heartbeat IPC: 2.04098 cumulative IPC: 2.32383 (Simulation time: 0 hr 1 min 10 sec) 
Heartbeat CPU  0 instructions:   45000002 cycles:   19345846 heartbeat IPC: 2.42941 cumulative IPC: 2.32608 (Simulation time: 0 hr 1 min 12 sec) 
Heartbeat CPU  0 instructions:   46000000 cycles:   19711817 heartbeat IPC: 2.73245 cumulative IPC: 2.33363 (Simulation time: 0 hr 1 min 13 sec) 
Heartbeat CPU  0 instructions:   47000002 cycles:   20124332 heartbeat IPC: 2.42416 cumulative IPC: 2.33548 (Simulation time: 0 hr 1 min 15 sec) 
Heartbeat CPU  0 instructions:   48000000 cycles:   20583566 heartbeat IPC: 2.17753 cumulative IPC: 2.33196 (Simulation time: 0 hr 1 min 16 sec) 
Heartbeat CPU  0 instructions:   49000003 cycles:   21039779 heartbeat IPC: 2.19197 cumulative IPC: 2.32892 (Simulation time: 0 hr 1 min 18 sec) 
Heartbeat CPU  0 instructions:   50000003 cycles:   21550070 heartbeat IPC: 1.95967 cumulative IPC: 2.32018 (Simulation time: 0 hr 1 min 19 sec) 
Heartbeat CPU  0 instructions:   51000002 cycles:   22012351 heartbeat IPC: 2.16318 cumulative IPC: 2.31688 (Simulation time: 0 hr 1 min 21 sec) 
Heartbeat CPU  0 instructions:   52000000 cycles:   22384187 heartbeat IPC: 2.68935 cumulative IPC: 2.32307 (Simulation time: 0 hr 1 min 23 sec) 
Heartbeat CPU  0 instructions:   53000001 cycles:   22750214 heartbeat IPC: 2.73204 cumulative IPC: 2.32965 (Simulation time: 0 hr 1 min 24 sec) 
Heartbeat CPU  0 instructions:   54000001 cycles:   23199653 heartbeat IPC: 2.22500 cumulative IPC: 2.32762 (Simulation time: 0 hr 1 min 26 sec) 
Heartbeat CPU  0 instructions:   55000001 cycles:   23652977 heartbeat IPC: 2.20593 cumulative IPC: 2.32529 (Simulation time: 0 hr 1 min 28 sec) 
Heartbeat CPU  0 instructions:   56000000 cycles:   24109245 heartbeat IPC: 2.19169 cumulative IPC: 2.32276 (Simulation time: 0 hr 1 min 29 sec) 
Heartbeat CPU  0 instructions:   57000003 cycles:   24594696 heartbeat IPC: 2.05995 cumulative IPC: 2.31757 (Simulation time: 0 hr 1 min 31 sec) 
Heartbeat CPU  0 instructions:   58000001 cycles:   24987139 heartbeat IPC: 2.54814 cumulative IPC: 2.32119 (Simulation time: 0 hr 1 min 32 sec) 
Heartbeat CPU  0 instructions:   59000001 cycles:   25353073 heartbeat IPC: 2.73273 cumulative IPC: 2.32713 (Simulation time: 0 hr 1 min 34 sec) 
Heartbeat CPU  0 instructions:   60000000 cycles:   25792198 heartbeat IPC: 2.27725 cumulative IPC: 2.32628 (Simulation time: 0 hr 1 min 36 sec) 
Heartbeat CPU  0 instructions:   61000000 cycles:   26247699 heartbeat IPC: 2.19538 cumulative IPC: 2.32401 (Simulation time: 0 hr 1 min 37 sec) 
Heartbeat CPU  0 instructions:   62000000 cycles:   26704728 heartbeat IPC: 2.18805 cumulative IPC: 2.32169 (Simulation time: 0 hr 1 min 39 sec) 
Heartbeat CPU  0 instructions:   63000000 cycles:   27191967 heartbeat IPC: 2.05238 cumulative IPC: 2.31686 (Simulation time: 0 hr 1 min 40 sec) 
Heartbeat CPU  0 instructions:   64000000 cycles:   27593257 heartbeat IPC: 2.49196 cumulative IPC: 2.31941 (Simulation time: 0 hr 1 min 42 sec) 
Heartbeat CPU  0 instructions:   65000000 cycles:   27959214 heartbeat IPC: 2.73256 cumulative IPC: 2.32482 (Simulation time: 0 hr 1 min 44 sec) 
Heartbeat CPU  0 instructions:   66000001 cycles:   28383976 heartbeat IPC: 2.35426 cumulative IPC: 2.32526 (Simulation time: 0 hr 1 min 45 sec) 
Heartbeat CPU  0 instructions:   67000003 cycles:   28843466 heartbeat IPC: 2.17633 cumulative IPC: 2.32288 (Simulation time: 0 hr 1 min 47 sec) 
Heartbeat CPU  0 instructions:   68000000 cycles:   29297031 heartbeat IPC: 2.20475 cumulative IPC: 2.32105 (Simulation time: 0 hr 1 min 49 sec) 
Heartbeat CPU  0 instructions:   69000001 cycles:   29783821 heartbeat IPC: 2.05428 cumulative IPC: 2.31669 (Simulation time: 0 hr 1 min 50 sec) 
Heartbeat CPU  0 instructions:   70000001 cycles:   30192260 heartbeat IPC: 2.44835 cumulative IPC: 2.31848 (Simulation time: 0 hr 1 min 52 sec) 
Heartbeat CPU  0 instructions:   71000001 cycles:   30558134 heartbeat IPC: 2.73318 cumulative IPC: 2.32344 (Simulation time: 0 hr 1 min 53 sec) 
Heartbeat CPU  0 instructions:   72000000 cycles:   30973317 heartbeat IPC: 2.40857 cumulative IPC: 2.32458 (Simulation time: 0 hr 1 min 55 sec) 
Heartbeat CPU  0 instructions:   73000000 cycles:   31429949 heartbeat IPC: 2.18995 cumulative IPC: 2.32263 (Simulation time: 0 hr 1 min 57 sec) 
Heartbeat CPU  0 instructions:   74000002 cycles:   31885006 heartbeat IPC: 2.19753 cumulative IPC: 2.32084 (Simulation time: 0 hr 1 min 58 sec) 
Heartbeat CPU  0 instructions:   75000002 cycles:   32373217 heartbeat IPC: 2.04829 cumulative IPC: 2.31673 (Simulation time: 0 hr 2 min 0 sec) 
Heartbeat CPU  0 instructions:   76000000 cycles:   32791389 heartbeat IPC: 2.39136 cumulative IPC: 2.31768 (Simulation time: 0 hr 2 min 1 sec) 
Heartbeat CPU  0 instructions:   77000003 cycles:   33157364 heartbeat IPC: 2.73244 cumulative IPC: 2.32226 (Simulation time: 0 hr 2 min 3 sec) 
Heartbeat CPU  0 instructions:   78000002 cycles:   33565048 heartbeat IPC: 2.45288 cumulative IPC: 2.32385 (Simulation time: 0 hr 2 min 5 sec) 
Heartbeat CPU  0 instructions:   79000000 cycles:   34020230 heartbeat IPC: 2.19692 cumulative IPC: 2.32215 (Simulation time: 0 hr 2 min 6 sec) 
Heartbeat CPU  0 instructions:   80000000 cycles:   34476831 heartbeat IPC: 2.19010 cumulative IPC: 2.32040 (Simulation time: 0 hr 2 min 8 sec) 
Heartbeat CPU  0 instructions:   81000001 cycles:   34935115 heartbeat IPC: 2.18206 cumulative IPC: 2.31858 (Simulation time: 0 hr 2 min 9 sec) 
Heartbeat CPU  0 instructions:   82000001 cycles:   35422139 heartbeat IPC: 2.05329 cumulative IPC: 2.31494 (Simulation time: 0 hr 2 min 11 sec) 
Heartbeat CPU  0 instructions:   83000001 cycles:   35792235 heartbeat IPC: 2.70200 cumulative IPC: 2.31894 (Simulation time: 0 hr 2 min 13 sec) 
Heartbeat CPU  0 instructions:   84000000 cycles:   36159154 heartbeat IPC: 2.72539 cumulative IPC: 2.32306 (Simulation time: 0 hr 2 min 14 sec) 
Heartbeat CPU  0 instructions:   85000003 cycles:   36614748 heartbeat IPC: 2.19494 cumulative IPC: 2.32147 (Simulation time: 0 hr 2 min 16 sec) 
Heartbeat CPU  0 instructions:   86000001 cycles:   37070023 heartbeat IPC: 2.19647 cumulative IPC: 2.31993 (Simulation time: 0 hr 2 min 17 sec) 
Heartbeat CPU  0 instructions:   87000003 cycles:   37526698 heartbeat IPC: 2.18975 cumulative IPC: 2.31835 (Simulation time: 0 hr 2 min 19 sec) 
Heartbeat CPU  0 instructions:   88000000 cycles:   38016268 heartbeat IPC: 2.04260 cumulative IPC: 2.31480 (Simulation time: 0 hr 2 min 20 sec) 
Heartbeat CPU  0 instructions:   89000002 cycles:   38418826 heartbeat IPC: 2.48412 cumulative IPC: 2.31657 (Simulation time: 0 hr 2 min 22 sec) 
Heartbeat CPU  0 instructions:   90000002 cycles:   38784668 heartbeat IPC: 2.73342 cumulative IPC: 2.32050 (Simulation time: 0 hr 2 min 24 sec) 
Heartbeat CPU  0 instructions:   91000002 cycles:   39205044 heartbeat IPC: 2.37882 cumulative IPC: 2.32113 (Simulation time: 0 hr 2 min 25 sec) 
Heartbeat CPU  0 instructions:   92000000 cycles:   39658241 heartbeat IPC: 2.20654 cumulative IPC: 2.31982 (Simulation time: 0 hr 2 min 27 sec) 
Heartbeat CPU  0 instructions:   93000002 cycles:   40114284 heartbeat IPC: 2.19278 cumulative IPC: 2.31838 (Simulation time: 0 hr 2 min 28 sec) 
Heartbeat CPU  0 instructions:   94000001 cycles:   40602891 heartbeat IPC: 2.04663 cumulative IPC: 2.31511 (Simulation time: 0 hr 2 min 30 sec) 
Heartbeat CPU  0 instructions:   95000003 cycles:   40974045 heartbeat IPC: 2.69430 cumulative IPC: 2.31854 (Simulation time: 0 hr 2 min 32 sec) 
Heartbeat CPU  0 instructions:   96000000 cycles:   41339974 heartbeat IPC: 2.73276 cumulative IPC: 2.32221 (Simulation time: 0 hr 2 min 33 sec) 
Heartbeat CPU  0 instructions:   97000001 cycles:   41785741 heartbeat IPC: 2.24333 cumulative IPC: 2.32137 (Simulation time: 0 hr 2 min 35 sec) 
Heartbeat CPU  0 instructions:   98000002 cycles:   42241802 heartbeat IPC: 2.19269 cumulative IPC: 2.31998 (Simulation time: 0 hr 2 min 36 sec) 
Heartbeat CPU  0 instructions:   99000003 cycles:   42727416 heartbeat IPC: 2.05925 cumulative IPC: 2.31701 (Simulation time: 0 hr 2 min 38 sec) 
Heartbeat CPU  0 instructions:  100000000 cycles:   43271606 heartbeat IPC: 1.83759 cumulative IPC: 2.31098 (Simulation time: 0 hr 2 min 40 sec) 

Warmup complete CPU  0 instructions:  100000001 cycles:   43271607 (Simulation time: 0 hr 2 min 40 sec) 

Heartbeat CPU  0 instructions:  101000000 cycles:   44371616 heartbeat IPC: 0.90908 cumulative IPC: 0.90908 (Simulation time: 0 hr 2 min 42 sec) 
Heartbeat CPU  0 instructions:  102000003 cycles:   45934780 heartbeat IPC: 0.63973 cumulative IPC: 0.75098 (Simulation time: 0 hr 2 min 44 sec) 
Heartbeat CPU  0 instructions:  103000000 cycles:   47503940 heartbeat IPC: 0.63728 cumulative IPC: 0.70883 (Simulation time: 0 hr 2 min 47 sec) 
Heartbeat CPU  0 instructions:  104000000 cycles:   49023447 heartbeat IPC: 0.65811 cumulative IPC: 0.69543 (Simulation time: 0 hr 2 min 49 sec) 
Heartbeat CPU  0 instructions:  105000000 cycles:   50322621 heartbeat IPC: 0.76972 cumulative IPC: 0.70912 (Simulation time: 0 hr 2 min 51 sec) 
Heartbeat CPU  0 instructions:  106000002 cycles:   51594956 heartbeat IPC: 0.78596 cumulative IPC: 0.72086 (Simulation time: 0 hr 2 min 54 sec) 
Heartbeat CPU  0 instructions:  107000003 cycles:   53168957 heartbeat IPC: 0.63532 cumulative IPC: 0.70726 (Simulation time: 0 hr 2 min 56 sec) 
Heartbeat CPU  0 instructions:  108000000 cycles:   54714937 heartbeat IPC: 0.64684 cumulative IPC: 0.69910 (Simulation time: 0 hr 2 min 59 sec) 
Heartbeat CPU  0 instructions:  109000000 cycles:   56209843 heartbeat IPC: 0.66894 cumulative IPC: 0.69561 (Simulation time: 0 hr 3 min 1 sec) 
Heartbeat CPU  0 instructions:  110000002 cycles:   57277513 heartbeat IPC: 0.93662 cumulative IPC: 0.71398 (Simulation time: 0 hr 3 min 3 sec) 
Heartbeat CPU  0 instructions:  111000002 cycles:   58805861 heartbeat IPC: 0.65430 cumulative IPC: 0.70811 (Simulation time: 0 hr 3 min 6 sec) 
Heartbeat CPU  0 instructions:  112000000 cycles:   60367015 heartbeat IPC: 0.64055 cumulative IPC: 0.70194 (Simulation time: 0 hr 3 min 8 sec) 
Heartbeat CPU  0 instructions:  113000002 cycles:   61845992 heartbeat IPC: 0.67614 cumulative IPC: 0.69989 (Simulation time: 0 hr 3 min 11 sec) 
Heartbeat CPU  0 instructions:  114000001 cycles:   63110970 heartbeat IPC: 0.79053 cumulative IPC: 0.70567 (Simulation time: 0 hr 3 min 13 sec) 
Heartbeat CPU  0 instructions:  115000000 cycles:   64589344 heartbeat IPC: 0.67642 cumulative IPC: 0.70364 (Simulation time: 0 hr 3 min 15 sec) 
Heartbeat CPU  0 instructions:  116000000 cycles:   66157111 heartbeat IPC: 0.63785 cumulative IPC: 0.69913 (Simulation time: 0 hr 3 min 18 sec) 
Heartbeat CPU  0 instructions:  117000000 cycles:   67879092 heartbeat IPC: 0.58073 cumulative IPC: 0.69085 (Simulation time: 0 hr 3 min 20 sec) 
Heartbeat CPU  0 instructions:  118000003 cycles:   69487350 heartbeat IPC: 0.62179 cumulative IPC: 0.68661 (Simulation time: 0 hr 3 min 22 sec) 
Heartbeat CPU  0 instructions:  119000002 cycles:   71171792 heartbeat IPC: 0.59367 cumulative IPC: 0.68100 (Simulation time: 0 hr 3 min 25 sec) 
Heartbeat CPU  0 instructions:  120000000 cycles:   72920009 heartbeat IPC: 0.57201 cumulative IPC: 0.67457 (Simulation time: 0 hr 3 min 27 sec) 
Heartbeat CPU  0 instructions:  121000000 cycles:   74044623 heartbeat IPC: 0.88919 cumulative IPC: 0.68242 (Simulation time: 0 hr 3 min 30 sec) 
Heartbeat CPU  0 instructions:  122000001 cycles:   75584214 heartbeat IPC: 0.64952 cumulative IPC: 0.68085 (Simulation time: 0 hr 3 min 32 sec) 
Heartbeat CPU  0 instructions:  123000001 cycles:   77187491 heartbeat IPC: 0.62372 cumulative IPC: 0.67815 (Simulation time: 0 hr 3 min 34 sec) 
Heartbeat CPU  0 instructions:  124000000 cycles:   78877145 heartbeat IPC: 0.59184 cumulative IPC: 0.67405 (Simulation time: 0 hr 3 min 37 sec) 
Heartbeat CPU  0 instructions:  125000001 cycles:   80494110 heartbeat IPC: 0.61844 cumulative IPC: 0.67164 (Simulation time: 0 hr 3 min 39 sec) 
Heartbeat CPU  0 instructions:  126000003 cycles:   82235607 heartbeat IPC: 0.57422 cumulative IPC: 0.66728 (Simulation time: 0 hr 3 min 41 sec) 
Heartbeat CPU  0 instructions:  127000000 cycles:   83350851 heartbeat IPC: 0.89666 cumulative IPC: 0.67367 (Simulation time: 0 hr 3 min 44 sec) 
Heartbeat CPU  0 instructions:  128000000 cycles:   84852472 heartbeat IPC: 0.66595 cumulative IPC: 0.67339 (Simulation time: 0 hr 3 min 46 sec) 
Heartbeat CPU  0 instructions:  129000000 cycles:   86393924 heartbeat IPC: 0.64874 cumulative IPC: 0.67251 (Simulation time: 0 hr 3 min 48 sec) 
Heartbeat CPU  0 instructions:  130000000 cycles:   88076814 heartbeat IPC: 0.59422 cumulative IPC: 0.66957 (Simulation time: 0 hr 3 min 51 sec) 
Heartbeat CPU  0 instructions:  131000002 cycles:   89658561 heartbeat IPC: 0.63221 cumulative IPC: 0.66829 (Simulation time: 0 hr 3 min 53 sec) 
Heartbeat CPU  0 instructions:  132000000 cycles:   91220357 heartbeat IPC: 0.64029 cumulative IPC: 0.66738 (Simulation time: 0 hr 3 min 55 sec) 
Heartbeat CPU  0 instructions:  133000002 cycles:   92386795 heartbeat IPC: 0.85731 cumulative IPC: 0.67189 (Simulation time: 0 hr 3 min 58 sec) 
Heartbeat CPU  0 instructions:  134000000 cycles:   93959079 heartbeat IPC: 0.63602 cumulative IPC: 0.67078 (Simulation time: 0 hr 4 min 0 sec) 
Heartbeat CPU  0 instructions:  135000001 cycles:   95521579 heartbeat IPC: 0.64000 cumulative IPC: 0.66986 (Simulation time: 0 hr 4 min 3 sec) 
Heartbeat CPU  0 instructions:  136000000 cycles:   97070337 heartbeat IPC: 0.64568 cumulative IPC: 0.66916 (Simulation time: 0 hr 4 min 5 sec) 
Heartbeat CPU  0 instructions:  137000002 cycles:   98495314 heartbeat IPC: 0.70177 cumulative IPC: 0.67000 (Simulation time: 0 hr 4 min 7 sec) 
Heartbeat CPU  0 instructions:  138000002 cycles:   99697711 heartbeat IPC: 0.83167 cumulative IPC: 0.67345 (Simulation time: 0 hr 4 min 10 sec) 
Heartbeat CPU  0 instructions:  139000001 cycles:  101271313 heartbeat IPC: 0.63548 cumulative IPC: 0.67242 (Simulation time: 0 hr 4 min 12 sec) 
Heartbeat CPU  0 instructions:  140000000 cycles:  102842790 heartbeat IPC: 0.63634 cumulative IPC: 0.67147 (Simulation time: 0 hr 4 min 15 sec) 
Heartbeat CPU  0 instructions:  141000000 cycles:  104355289 heartbeat IPC: 0.66116 cumulative IPC: 0.67121 (Simulation time: 0 hr 4 min 17 sec) 
Heartbeat CPU  0 instructions:  142000001 cycles:  105650456 heartbeat IPC: 0.77210 cumulative IPC: 0.67331 (Simulation time: 0 hr 4 min 19 sec) 
Heartbeat CPU  0 instructions:  143000003 cycles:  106961658 heartbeat IPC: 0.76266 cumulative IPC: 0.67514 (Simulation time: 0 hr 4 min 22 sec) 
Heartbeat CPU  0 instructions:  144000000 cycles:  108531226 heartbeat IPC: 0.63712 cumulative IPC: 0.67423 (Simulation time: 0 hr 4 min 24 sec) 
Heartbeat CPU  0 instructions:  145000002 cycles:  110089347 heartbeat IPC: 0.64180 cumulative IPC: 0.67347 (Simulation time: 0 hr 4 min 27 sec) 
Heartbeat CPU  0 instructions:  146000002 cycles:  111666149 heartbeat IPC: 0.63420 cumulative IPC: 0.67257 (Simulation time: 0 hr 4 min 29 sec) 
Heartbeat CPU  0 instructions:  147000002 cycles:  112708792 heartbeat IPC: 0.95910 cumulative IPC: 0.67687 (Simulation time: 0 hr 4 min 31 sec) 
Heartbeat CPU  0 instructions:  148000000 cycles:  114237902 heartbeat IPC: 0.65397 cumulative IPC: 0.67638 (Simulation time: 0 hr 4 min 34 sec) 
Heartbeat CPU  0 instructions:  149000000 cycles:  115792704 heartbeat IPC: 0.64317 cumulative IPC: 0.67567 (Simulation time: 0 hr 4 min 36 sec) 
Heartbeat CPU  0 instructions:  150000003 cycles:  117314111 heartbeat IPC: 0.65729 cumulative IPC: 0.67529 (Simulation time: 0 hr 4 min 38 sec) 
Heartbeat CPU  0 instructions:  151000002 cycles:  118770924 heartbeat IPC: 0.68643 cumulative IPC: 0.67550 (Simulation time: 0 hr 4 min 41 sec) 
Heartbeat CPU  0 instructions:  152000000 cycles:  119699937 heartbeat IPC: 1.07641 cumulative IPC: 0.68038 (Simulation time: 0 hr 4 min 43 sec) 
Heartbeat CPU  0 instructions:  153000001 cycles:  120831730 heartbeat IPC: 0.88355 cumulative IPC: 0.68334 (Simulation time: 0 hr 4 min 45 sec) 
Heartbeat CPU  0 instructions:  154000003 cycles:  122398813 heartbeat IPC: 0.63813 cumulative IPC: 0.68245 (Simulation time: 0 hr 4 min 48 sec) 
Heartbeat CPU  0 instructions:  155000003 cycles:  123954634 heartbeat IPC: 0.64275 cumulative IPC: 0.68168 (Simulation time: 0 hr 4 min 50 sec) 
Heartbeat CPU  0 instructions:  156000000 cycles:  125467012 heartbeat IPC: 0.66121 cumulative IPC: 0.68130 (Simulation time: 0 hr 4 min 52 sec) 
Heartbeat CPU  0 instructions:  157000003 cycles:  126652064 heartbeat IPC: 0.84385 cumulative IPC: 0.68361 (Simulation time: 0 hr 4 min 54 sec) 
Heartbeat CPU  0 instructions:  158000003 cycles:  128050782 heartbeat IPC: 0.71494 cumulative IPC: 0.68413 (Simulation time: 0 hr 4 min 57 sec) 
Heartbeat CPU  0 instructions:  159000001 cycles:  129587406 heartbeat IPC: 0.65078 cumulative IPC: 0.68354 (Simulation time: 0 hr 4 min 59 sec) 
Heartbeat CPU  0 instructions:  160000000 cycles:  131142983 heartbeat IPC: 0.64285 cumulative IPC: 0.68282 (Simulation time: 0 hr 5 min 2 sec) 
Heartbeat CPU  0 instructions:  161000000 cycles:  132592036 heartbeat IPC: 0.69011 cumulative IPC: 0.68293 (Simulation time: 0 hr 5 min 4 sec) 
Heartbeat CPU  0 instructions:  162000003 cycles:  133701043 heartbeat IPC: 0.90171 cumulative IPC: 0.68562 (Simulation time: 0 hr 5 min 6 sec) 
Heartbeat CPU  0 instructions:  163000003 cycles:  135261115 heartbeat IPC: 0.64100 cumulative IPC: 0.68486 (Simulation time: 0 hr 5 min 9 sec) 
Heartbeat CPU  0 instructions:  164000000 cycles:  136820352 heartbeat IPC: 0.64134 cumulative IPC: 0.68414 (Simulation time: 0 hr 5 min 11 sec) 
Heartbeat CPU  0 instructions:  165000000 cycles:  138313176 heartbeat IPC: 0.66987 cumulative IPC: 0.68391 (Simulation time: 0 hr 5 min 13 sec) 
Heartbeat CPU  0 instructions:  166000002 cycles:  139505635 heartbeat IPC: 0.83860 cumulative IPC: 0.68583 (Simulation time: 0 hr 5 min 15 sec) 
Heartbeat CPU  0 instructions:  167000001 cycles:  140885076 heartbeat IPC: 0.72493 cumulative IPC: 0.68638 (Simulation time: 0 hr 5 min 18 sec) 
Heartbeat CPU  0 instructions:  168000000 cycles:  142425847 heartbeat IPC: 0.64903 cumulative IPC: 0.68580 (Simulation time: 0 hr 5 min 20 sec) 
Heartbeat CPU  0 instructions:  169000000 cycles:  143977358 heartbeat IPC: 0.64453 cumulative IPC: 0.68516 (Simulation time: 0 hr 5 min 23 sec) 
Heartbeat CPU  0 instructions:  170000002 cycles:  145439494 heartbeat IPC: 0.68393 cumulative IPC: 0.68515 (Simulation time: 0 hr 5 min 25 sec) 
Heartbeat CPU  0 instructions:  171000003 cycles:  146542764 heartbeat IPC: 0.90640 cumulative IPC: 0.68751 (Simulation time: 0 hr 5 min 27 sec) 
Heartbeat CPU  0 instructions:  172000000 cycles:  148101562 heartbeat IPC: 0.64152 cumulative IPC: 0.68683 (Simulation time: 0 hr 5 min 30 sec) 
Heartbeat CPU  0 instructions:  173000000 cycles:  149665629 heartbeat IPC: 0.63936 cumulative IPC: 0.68613 (Simulation time: 0 hr 5 min 32 sec) 
Heartbeat CPU  0 instructions:  174000000 cycles:  151165095 heartbeat IPC: 0.66690 cumulative IPC: 0.68586 (Simulation time: 0 hr 5 min 35 sec) 
Heartbeat CPU  0 instructions:  175000002 cycles:  152371262 heartbeat IPC: 0.82907 cumulative IPC: 0.68744 (Simulation time: 0 hr 5 min 37 sec) 
Heartbeat CPU  0 instructions:  176000000 cycles:  153734025 heartbeat IPC: 0.73380 cumulative IPC: 0.68802 (Simulation time: 0 hr 5 min 39 sec) 
Heartbeat CPU  0 instructions:  177000003 cycles:  155276806 heartbeat IPC: 0.64818 cumulative IPC: 0.68747 (Simulation time: 0 hr 5 min 42 sec) 
Heartbeat CPU  0 instructions:  178000003 cycles:  156828351 heartbeat IPC: 0.64452 cumulative IPC: 0.68688 (Simulation time: 0 hr 5 min 44 sec) 
Heartbeat CPU  0 instructions:  179000002 cycles:  158299208 heartbeat IPC: 0.67988 cumulative IPC: 0.68679 (Simulation time: 0 hr 5 min 46 sec) 
Heartbeat CPU  0 instructions:  180000000 cycles:  159388446 heartbeat IPC: 0.91807 cumulative IPC: 0.68896 (Simulation time: 0 hr 5 min 48 sec) 
Heartbeat CPU  0 instructions:  181000002 cycles:  160941173 heartbeat IPC: 0.64403 cumulative IPC: 0.68837 (Simulation time: 0 hr 5 min 51 sec) 
Heartbeat CPU  0 instructions:  182000001 cycles:  162513684 heartbeat IPC: 0.63592 cumulative IPC: 0.68768 (Simulation time: 0 hr 5 min 53 sec) 
Heartbeat CPU  0 instructions:  183000002 cycles:  163988153 heartbeat IPC: 0.67821 cumulative IPC: 0.68756 (Simulation time: 0 hr 5 min 56 sec) 
Heartbeat CPU  0 instructions:  184000000 cycles:  165219585 heartbeat IPC: 0.81206 cumulative IPC: 0.68882 (Simulation time: 0 hr 5 min 58 sec) 
Heartbeat CPU  0 instructions:  185000003 cycles:  166557404 heartbeat IPC: 0.74749 cumulative IPC: 0.68945 (Simulation time: 0 hr 6 min 0 sec) 
Heartbeat CPU  0 instructions:  186000001 cycles:  168109162 heartbeat IPC: 0.64443 cumulative IPC: 0.68890 (Simulation time: 0 hr 6 min 3 sec) 
Heartbeat CPU  0 instructions:  187000003 cycles:  169665503 heartbeat IPC: 0.64253 cumulative IPC: 0.68832 (Simulation time: 0 hr 6 min 5 sec) 
Heartbeat CPU  0 instructions:  188000000 cycles:  171136438 heartbeat IPC: 0.67984 cumulative IPC: 0.68823 (Simulation time: 0 hr 6 min 7 sec) 
Heartbeat CPU  0 instructions:  189000001 cycles:  172237216 heartbeat IPC: 0.90845 cumulative IPC: 0.69011 (Simulation time: 0 hr 6 min 10 sec) 
Heartbeat CPU  0 instructions:  190000001 cycles:  173786728 heartbeat IPC: 0.64536 cumulative IPC: 0.68958 (Simulation time: 0 hr 6 min 12 sec) 
Heartbeat CPU  0 instructions:  191000003 cycles:  175355869 heartbeat IPC: 0.63729 cumulative IPC: 0.68895 (Simulation time: 0 hr 6 min 15 sec) 
Heartbeat CPU  0 instructions:  192000000 cycles:  176836738 heartbeat IPC: 0.67528 cumulative IPC: 0.68880 (Simulation time: 0 hr 6 min 17 sec) 
Heartbeat CPU  0 instructions:  193000002 cycles:  178074219 heartbeat IPC: 0.80809 cumulative IPC: 0.68990 (Simulation time: 0 hr 6 min 19 sec) 
Heartbeat CPU  0 instructions:  194000002 cycles:  179417837 heartbeat IPC: 0.74426 cumulative IPC: 0.69043 (Simulation time: 0 hr 6 min 22 sec) 
Heartbeat CPU  0 instructions:  195000003 cycles:  180970675 heartbeat IPC: 0.64398 cumulative IPC: 0.68991 (Simulation time: 0 hr 6 min 24 sec) 
Heartbeat CPU  0 instructions:  196000000 cycles:  182521737 heartbeat IPC: 0.64472 cumulative IPC: 0.68941 (Simulation time: 0 hr 6 min 27 sec) 
Heartbeat CPU  0 instructions:  197000002 cycles:  184020956 heartbeat IPC: 0.66702 cumulative IPC: 0.68917 (Simulation time: 0 hr 6 min 29 sec) 
Heartbeat CPU  0 instructions:  198000001 cycles:  185097971 heartbeat IPC: 0.92849 cumulative IPC: 0.69099 (Simulation time: 0 hr 6 min 31 sec) 
Heartbeat CPU  0 instructions:  199000001 cycles:  186644821 heartbeat IPC: 0.64648 cumulative IPC: 0.69051 (Simulation time: 0 hr 6 min 34 sec) 
Heartbeat CPU  0 instructions:  200000000 cycles:  188213000 heartbeat IPC: 0.63768 cumulative IPC: 0.68993 (Simulation time: 0 hr 6 min 36 sec) 
Heartbeat CPU  0 instructions:  201000003 cycles:  189683357 heartbeat IPC: 0.68011 cumulative IPC: 0.68984 (Simulation time: 0 hr 6 min 38 sec) 
Heartbeat CPU  0 instructions:  202000001 cycles:  190947439 heartbeat IPC: 0.79109 cumulative IPC: 0.69070 (Simulation time: 0 hr 6 min 40 sec) 
Heartbeat CPU  0 instructions:  203000001 cycles:  192249977 heartbeat IPC: 0.76773 cumulative IPC: 0.69138 (Simulation time: 0 hr 6 min 43 sec) 
Heartbeat CPU  0 instructions:  204000000 cycles:  193813384 heartbeat IPC: 0.63963 cumulative IPC: 0.69084 (Simulation time: 0 hr 6 min 45 sec) 
Heartbeat CPU  0 instructions:  205000002 cycles:  195355731 heartbeat IPC: 0.64836 cumulative IPC: 0.69041 (Simulation time: 0 hr 6 min 48 sec) 
Heartbeat CPU  0 instructions:  206000001 cycles:  196851345 heartbeat IPC: 0.66862 cumulative IPC: 0.69020 (Simulation time: 0 hr 6 min 50 sec) 
Heartbeat CPU  0 instructions:  207000001 cycles:  197924994 heartbeat IPC: 0.93140 cumulative IPC: 0.69187 (Simulation time: 0 hr 6 min 52 sec) 
Heartbeat CPU  0 instructions:  208000000 cycles:  199465974 heartbeat IPC: 0.64894 cumulative IPC: 0.69145 (Simulation time: 0 hr 6 min 55 sec) 
Heartbeat CPU  0 instructions:  209000001 cycles:  201024857 heartbeat IPC: 0.64149 cumulative IPC: 0.69095 (Simulation time: 0 hr 6 min 57 sec) 
Heartbeat CPU  0 instructions:  210000000 cycles:  202495374 heartbeat IPC: 0.68003 cumulative IPC: 0.69085 (Simulation time: 0 hr 6 min 59 sec) 
Heartbeat CPU  0 instructions:  211000003 cycles:  203756559 heartbeat IPC: 0.79291 cumulative IPC: 0.69165 (Simulation time: 0 hr 7 min 2 sec) 
Heartbeat CPU  0 instructions:  212000000 cycles:  204698029 heartbeat IPC: 1.06217 cumulative IPC: 0.69381 (Simulation time: 0 hr 7 min 4 sec) 
Heartbeat CPU  0 instructions:  213000001 cycles:  206020834 heartbeat IPC: 0.75597 cumulative IPC: 0.69432 (Simulation time: 0 hr 7 min 6 sec) 
Heartbeat CPU  0 instructions:  214000001 cycles:  207583381 heartbeat IPC: 0.63998 cumulative IPC: 0.69380 (Simulation time: 0 hr 7 min 9 sec) 
Heartbeat CPU  0 instructions:  215000002 cycles:  209123992 heartbeat IPC: 0.64909 cumulative IPC: 0.69339 (Simulation time: 0 hr 7 min 11 sec) 
Heartbeat CPU  0 instructions:  216000000 cycles:  210614646 heartbeat IPC: 0.67085 cumulative IPC: 0.69319 (Simulation time: 0 hr 7 min 13 sec) 
Heartbeat CPU  0 instructions:  217000001 cycles:  211693226 heartbeat IPC: 0.92715 cumulative IPC: 0.69469 (Simulation time: 0 hr 7 min 15 sec) 
Heartbeat CPU  0 instructions:  218000000 cycles:  213242684 heartbeat IPC: 0.64539 cumulative IPC: 0.69424 (Simulation time: 0 hr 7 min 18 sec) 
Heartbeat CPU  0 instructions:  219000000 cycles:  214809935 heartbeat IPC: 0.63806 cumulative IPC: 0.69372 (Simulation time: 0 hr 7 min 20 sec) 
Heartbeat CPU  0 instructions:  220000000 cycles:  216275821 heartbeat IPC: 0.68218 cumulative IPC: 0.69362 (Simulation time: 0 hr 7 min 22 sec) 
Heartbeat CPU  0 instructions:  221000001 cycles:  217524784 heartbeat IPC: 0.80067 cumulative IPC: 0.69439 (Simulation time: 0 hr 7 min 25 sec) 
Heartbeat CPU  0 instructions:  222000002 cycles:  218850093 heartbeat IPC: 0.75454 cumulative IPC: 0.69485 (Simulation time: 0 hr 7 min 27 sec) 
Heartbeat CPU  0 instructions:  223000001 cycles:  220406232 heartbeat IPC: 0.64262 cumulative IPC: 0.69439 (Simulation time: 0 hr 7 min 29 sec) 
Heartbeat CPU  0 instructions:  224000000 cycles:  221952403 heartbeat IPC: 0.64676 cumulative IPC: 0.69397 (Simulation time: 0 hr 7 min 32 sec) 
Heartbeat CPU  0 instructions:  225000001 cycles:  223427525 heartbeat IPC: 0.67791 cumulative IPC: 0.69384 (Simulation time: 0 hr 7 min 34 sec) 
Heartbeat CPU  0 instructions:  226000003 cycles:  224512592 heartbeat IPC: 0.92160 cumulative IPC: 0.69521 (Simulation time: 0 hr 7 min 36 sec) 
Heartbeat CPU  0 instructions:  227000003 cycles:  226061329 heartbeat IPC: 0.64569 cumulative IPC: 0.69479 (Simulation time: 0 hr 7 min 39 sec) 
Heartbeat CPU  0 instructions:  228000000 cycles:  227631059 heartbeat IPC: 0.63705 cumulative IPC: 0.69430 (Simulation time: 0 hr 7 min 41 sec) 
Heartbeat CPU  0 instructions:  229000003 cycles:  229103259 heartbeat IPC: 0.67926 cumulative IPC: 0.69418 (Simulation time: 0 hr 7 min 44 sec) 
Heartbeat CPU  0 instructions:  230000001 cycles:  230339727 heartbeat IPC: 0.80875 cumulative IPC: 0.69493 (Simulation time: 0 hr 7 min 46 sec) 
Heartbeat CPU  0 instructions:  231000002 cycles:  231669869 heartbeat IPC: 0.75180 cumulative IPC: 0.69534 (Simulation time: 0 hr 7 min 48 sec) 
Heartbeat CPU  0 instructions:  232000000 cycles:  233222953 heartbeat IPC: 0.64388 cumulative IPC: 0.69491 (Simulation time: 0 hr 7 min 51 sec) 
Heartbeat CPU  0 instructions:  233000002 cycles:  234761183 heartbeat IPC: 0.65010 cumulative IPC: 0.69455 (Simulation time: 0 hr 7 min 53 sec) 
Heartbeat CPU  0 instructions:  234000002 cycles:  236248281 heartbeat IPC: 0.67245 cumulative IPC: 0.69438 (Simulation time: 0 hr 7 min 55 sec) 
Heartbeat CPU  0 instructions:  235000000 cycles:  237319221 heartbeat IPC: 0.93376 cumulative IPC: 0.69571 (Simulation time: 0 hr 7 min 58 sec) 
Heartbeat CPU  0 instructions:  236000000 cycles:  238866183 heartbeat IPC: 0.64643 cumulative IPC: 0.69532 (Simulation time: 0 hr 8 min 0 sec) 
Heartbeat CPU  0 instructions:  237000003 cycles:  240437828 heartbeat IPC: 0.63628 cumulative IPC: 0.69485 (Simulation time: 0 hr 8 min 3 sec) 
Heartbeat CPU  0 instructions:  238000000 cycles:  241904928 heartbeat IPC: 0.68161 cumulative IPC: 0.69475 (Simulation time: 0 hr 8 min 5 sec) 
Heartbeat CPU  0 instructions:  239000000 cycles:  243147766 heartbeat IPC: 0.80461 cumulative IPC: 0.69543 (Simulation time: 0 hr 8 min 7 sec) 
Heartbeat CPU  0 instructions:  240000000 cycles:  244465856 heartbeat IPC: 0.75867 cumulative IPC: 0.69584 (Simulation time: 0 hr 8 min 9 sec) 
Heartbeat CPU  0 instructions:  241000000 cycles:  246022797 heartbeat IPC: 0.64229 cumulative IPC: 0.69543 (Simulation time: 0 hr 8 min 12 sec) 
Heartbeat CPU  0 instructions:  242000002 cycles:  247561292 heartbeat IPC: 0.64999 cumulative IPC: 0.69509 (Simulation time: 0 hr 8 min 14 sec) 
Heartbeat CPU  0 instructions:  243000003 cycles:  249041334 heartbeat IPC: 0.67566 cumulative IPC: 0.69495 (Simulation time: 0 hr 8 min 17 sec) 
Heartbeat CPU  0 instructions:  244000000 cycles:  250115782 heartbeat IPC: 0.93071 cumulative IPC: 0.69618 (Simulation time: 0 hr 8 min 19 sec) 
Heartbeat CPU  0 instructions:  245000001 cycles:  251666182 heartbeat IPC: 0.64500 cumulative IPC: 0.69580 (Simulation time: 0 hr 8 min 21 sec) 
Heartbeat CPU  0 instructions:  246000000 cycles:  253230281 heartbeat IPC: 0.63935 cumulative IPC: 0.69537 (Simulation time: 0 hr 8 min 24 sec) 
Heartbeat CPU  0 instructions:  247000001 cycles:  254694025 heartbeat IPC: 0.68318 cumulative IPC: 0.69529 (Simulation time: 0 hr 8 min 26 sec) 
Heartbeat CPU  0 instructions:  248000000 cycles:  255944813 heartbeat IPC: 0.79950 cumulative IPC: 0.69590 (Simulation time: 0 hr 8 min 28 sec) 
Heartbeat CPU  0 instructions:  249000000 cycles:  257263305 heartbeat IPC: 0.75844 cumulative IPC: 0.69629 (Simulation time: 0 hr 8 min 30 sec) 
Heartbeat CPU  0 instructions:  250000003 cycles:  258820842 heartbeat IPC: 0.64204 cumulative IPC: 0.69590 (Simulation time: 0 hr 8 min 33 sec) 
Heartbeat CPU  0 instructions:  251000002 cycles:  260364837 heartbeat IPC: 0.64767 cumulative IPC: 0.69555 (Simulation time: 0 hr 8 min 35 sec) 
Heartbeat CPU  0 instructions:  252000000 cycles:  261843826 heartbeat IPC: 0.67614 cumulative IPC: 0.69542 (Simulation time: 0 hr 8 min 38 sec) 
Heartbeat CPU  0 instructions:  253000002 cycles:  262937214 heartbeat IPC: 0.91459 cumulative IPC: 0.69651 (Simulation time: 0 hr 8 min 40 sec) 
Heartbeat CPU  0 instructions:  254000003 cycles:  264487342 heartbeat IPC: 0.64511 cumulative IPC: 0.69615 (Simulation time: 0 hr 8 min 42 sec) 
Heartbeat CPU  0 instructions:  255000003 cycles:  266053229 heartbeat IPC: 0.63862 cumulative IPC: 0.69575 (Simulation time: 0 hr 8 min 45 sec) 
Heartbeat CPU  0 instructions:  256000000 cycles:  267528858 heartbeat IPC: 0.67768 cumulative IPC: 0.69563 (Simulation time: 0 hr 8 min 47 sec) 
Heartbeat CPU  0 instructions:  257000001 cycles:  268750148 heartbeat IPC: 0.81881 cumulative IPC: 0.69630 (Simulation time: 0 hr 8 min 49 sec) 
Heartbeat CPU  0 instructions:  258000002 cycles:  270100191 heartbeat IPC: 0.74072 cumulative IPC: 0.69656 (Simulation time: 0 hr 8 min 52 sec) 
Heartbeat CPU  0 instructions:  259000000 cycles:  271649546 heartbeat IPC: 0.64543 cumulative IPC: 0.69621 (Simulation time: 0 hr 8 min 54 sec) 
Heartbeat CPU  0 instructions:  260000000 cycles:  273207404 heartbeat IPC: 0.64191 cumulative IPC: 0.69585 (Simulation time: 0 hr 8 min 56 sec) 
Heartbeat CPU  0 instructions:  261000003 cycles:  274654947 heartbeat IPC: 0.69083 cumulative IPC: 0.69582 (Simulation time: 0 hr 8 min 59 sec) 
Heartbeat CPU  0 instructions:  262000001 cycles:  275759105 heartbeat IPC: 0.90567 cumulative IPC: 0.69681 (Simulation time: 0 hr 9 min 1 sec) 
Heartbeat CPU  0 instructions:  263000003 cycles:  277314698 heartbeat IPC: 0.64284 cumulative IPC: 0.69645 (Simulation time: 0 hr 9 min 3 sec) 
Heartbeat CPU  0 instructions:  264000000 cycles:  278879349 heartbeat IPC: 0.63912 cumulative IPC: 0.69607 (Simulation time: 0 hr 9 min 6 sec) 
Heartbeat CPU  0 instructions:  265000000 cycles:  280418907 heartbeat IPC: 0.64954 cumulative IPC: 0.69577 (Simulation time: 0 hr 9 min 8 sec) 
Heartbeat CPU  0 instructions:  266000000 cycles:  281519593 heartbeat IPC: 0.90852 cumulative IPC: 0.69675 (Simulation time: 0 hr 9 min 10 sec) 
Heartbeat CPU  0 instructions:  267000002 cycles:  282440287 heartbeat IPC: 1.08614 cumulative IPC: 0.69825 (Simulation time: 0 hr 9 min 13 sec) 
Heartbeat CPU  0 instructions:  268000000 cycles:  283860528 heartbeat IPC: 0.70410 cumulative IPC: 0.69829 (Simulation time: 0 hr 9 min 15 sec) 
Heartbeat CPU  0 instructions:  269000002 cycles:  285393879 heartbeat IPC: 0.65217 cumulative IPC: 0.69799 (Simulation time: 0 hr 9 min 17 sec) 
Heartbeat CPU  0 instructions:  270000003 cycles:  287137071 heartbeat IPC: 0.57366 cumulative IPC: 0.69711 (Simulation time: 0 hr 9 min 20 sec) 
Heartbeat CPU  0 instructions:  271000001 cycles:  288179484 heartbeat IPC: 0.95931 cumulative IPC: 0.69822 (Simulation time: 0 hr 9 min 22 sec) 
Heartbeat CPU  0 instructions:  272000000 cycles:  289679365 heartbeat IPC: 0.66672 cumulative IPC: 0.69803 (Simulation time: 0 hr 9 min 24 sec) 
Heartbeat CPU  0 instructions:  273000001 cycles:  291238832 heartbeat IPC: 0.64125 cumulative IPC: 0.69767 (Simulation time: 0 hr 9 min 27 sec) 
Heartbeat CPU  0 instructions:  274000000 cycles:  292919228 heartbeat IPC: 0.59510 cumulative IPC: 0.69698 (Simulation time: 0 hr 9 min 29 sec) 
Heartbeat CPU  0 instructions:  275000003 cycles:  293981696 heartbeat IPC: 0.94121 cumulative IPC: 0.69802 (Simulation time: 0 hr 9 min 31 sec) 
Heartbeat CPU  0 instructions:  276000000 cycles:  295517565 heartbeat IPC: 0.65110 cumulative IPC: 0.69773 (Simulation time: 0 hr 9 min 34 sec) 
Heartbeat CPU  0 instructions:  277000001 cycles:  297123203 heartbeat IPC: 0.62281 cumulative IPC: 0.69726 (Simulation time: 0 hr 9 min 36 sec) 
Heartbeat CPU  0 instructions:  278000002 cycles:  298686575 heartbeat IPC: 0.63964 cumulative IPC: 0.69691 (Simulation time: 0 hr 9 min 39 sec) 
Heartbeat CPU  0 instructions:  279000003 cycles:  299762140 heartbeat IPC: 0.92974 cumulative IPC: 0.69788 (Simulation time: 0 hr 9 min 41 sec) 
Heartbeat CPU  0 instructions:  280000000 cycles:  301310448 heartbeat IPC: 0.64586 cumulative IPC: 0.69757 (Simulation time: 0 hr 9 min 43 sec) 
Heartbeat CPU  0 instructions:  281000003 cycles:  302932642 heartbeat IPC: 0.61645 cumulative IPC: 0.69706 (Simulation time: 0 hr 9 min 46 sec) 
Heartbeat CPU  0 instructions:  282000001 cycles:  304438187 heartbeat IPC: 0.66421 cumulative IPC: 0.69687 (Simulation time: 0 hr 9 min 48 sec) 
Heartbeat CPU  0 instructions:  283000000 cycles:  305562547 heartbeat IPC: 0.88939 cumulative IPC: 0.69770 (Simulation time: 0 hr 9 min 50 sec) 
Heartbeat CPU  0 instructions:  284000000 cycles:  307131257 heartbeat IPC: 0.63747 cumulative IPC: 0.69734 (Simulation time: 0 hr 9 min 53 sec) 
Heartbeat CPU  0 instructions:  285000002 cycles:  308916356 heartbeat IPC: 0.56019 cumulative IPC: 0.69642 (Simulation time: 0 hr 9 min 55 sec) 
Heartbeat CPU  0 instructions:  286000003 cycles:  310700717 heartbeat IPC: 0.56043 cumulative IPC: 0.69551 (Simulation time: 0 hr 9 min 58 sec) 
Heartbeat CPU  0 instructions:  287000003 cycles:  311819228 heartbeat IPC: 0.89405 cumulative IPC: 0.69634 (Simulation time: 0 hr 10 min 0 sec) 
Heartbeat CPU  0 instructions:  288000000 cycles:  313343850 heartbeat IPC: 0.65590 cumulative IPC: 0.69611 (Simulation time: 0 hr 10 min 2 sec) 
Heartbeat CPU  0 instructions:  289000001 cycles:  314841789 heartbeat IPC: 0.66758 cumulative IPC: 0.69595 (Simulation time: 0 hr 10 min 5 sec) 
Heartbeat CPU  0 instructions:  290000001 cycles:  316635296 heartbeat IPC: 0.55757 cumulative IPC: 0.69504 (Simulation time: 0 hr 10 min 7 sec) 
Heartbeat CPU  0 instructions:  291000000 cycles:  318483096 heartbeat IPC: 0.54118 cumulative IPC: 0.69401 (Simulation time: 0 hr 10 min 9 sec) 
Heartbeat CPU  0 instructions:  292000000 cycles:  319847621 heartbeat IPC: 0.73286 cumulative IPC: 0.69420 (Simulation time: 0 hr 10 min 12 sec) 
Heartbeat CPU  0 instructions:  293000001 cycles:  321216553 heartbeat IPC: 0.73050 cumulative IPC: 0.69438 (Simulation time: 0 hr 10 min 14 sec) 
Heartbeat CPU  0 instructions:  294000002 cycles:  322663947 heartbeat IPC: 0.69090 cumulative IPC: 0.69436 (Simulation time: 0 hr 10 min 16 sec) 
Heartbeat CPU  0 instructions:  295000003 cycles:  324389417 heartbeat IPC: 0.57955 cumulative IPC: 0.69366 (Simulation time: 0 hr 10 min 19 sec) 
Heartbeat CPU  0 instructions:  296000000 cycles:  326034605 heartbeat IPC: 0.60783 cumulative IPC: 0.69316 (Simulation time: 0 hr 10 min 21 sec) 
Heartbeat CPU  0 instructions:  297000002 cycles:  327703994 heartbeat IPC: 0.59902 cumulative IPC: 0.69261 (Simulation time: 0 hr 10 min 24 sec) 
Heartbeat CPU  0 instructions:  298000003 cycles:  329260264 heartbeat IPC: 0.64256 cumulative IPC: 0.69234 (Simulation time: 0 hr 10 min 26 sec) 
Heartbeat CPU  0 instructions:  299000000 cycles:  330587285 heartbeat IPC: 0.75357 cumulative IPC: 0.69262 (Simulation time: 0 hr 10 min 28 sec) 
Heartbeat CPU  0 instructions:  300000000 cycles:  332141479 heartbeat IPC: 0.64342 cumulative IPC: 0.69235 (Simulation time: 0 hr 10 min 31 sec) 
Heartbeat CPU  0 instructions:  301000000 cycles:  333749709 heartbeat IPC: 0.62180 cumulative IPC: 0.69196 (Simulation time: 0 hr 10 min 33 sec) 
Heartbeat CPU  0 instructions:  302000001 cycles:  335413576 heartbeat IPC: 0.60101 cumulative IPC: 0.69144 (Simulation time: 0 hr 10 min 36 sec) 
Heartbeat CPU  0 instructions:  303000003 cycles:  337081920 heartbeat IPC: 0.59940 cumulative IPC: 0.69092 (Simulation time: 0 hr 10 min 38 sec) 
Heartbeat CPU  0 instructions:  304000000 cycles:  338905300 heartbeat IPC: 0.54843 cumulative IPC: 0.69004 (Simulation time: 0 hr 10 min 40 sec) 
Heartbeat CPU  0 instructions:  305000000 cycles:  340597346 heartbeat IPC: 0.59100 cumulative IPC: 0.68948 (Simulation time: 0 hr 10 min 43 sec) 
Heartbeat CPU  0 instructions:  306000002 cycles:  341817442 heartbeat IPC: 0.81961 cumulative IPC: 0.69001 (Simulation time: 0 hr 10 min 45 sec) 
Heartbeat CPU  0 instructions:  307000001 cycles:  343363607 heartbeat IPC: 0.64676 cumulative IPC: 0.68979 (Simulation time: 0 hr 10 min 48 sec) 
Heartbeat CPU  0 instructions:  308000000 cycles:  344922878 heartbeat IPC: 0.64132 cumulative IPC: 0.68954 (Simulation time: 0 hr 10 min 50 sec) 
Heartbeat CPU  0 instructions:  309000002 cycles:  346613272 heartbeat IPC: 0.59158 cumulative IPC: 0.68899 (Simulation time: 0 hr 10 min 52 sec) 
Heartbeat CPU  0 instructions:  310000002 cycles:  348268495 heartbeat IPC: 0.60415 cumulative IPC: 0.68853 (Simulation time: 0 hr 10 min 55 sec) 
Heartbeat CPU  0 instructions:  311000001 cycles:  350089570 heartbeat IPC: 0.54913 cumulative IPC: 0.68770 (Simulation time: 0 hr 10 min 57 sec) 
Heartbeat CPU  0 instructions:  312000000 cycles:  351760988 heartbeat IPC: 0.59829 cumulative IPC: 0.68722 (Simulation time: 0 hr 10 min 59 sec) 
Heartbeat CPU  0 instructions:  313000003 cycles:  352925851 heartbeat IPC: 0.85847 cumulative IPC: 0.68786 (Simulation time: 0 hr 11 min 2 sec) 
Heartbeat CPU  0 instructions:  314000000 cycles:  354471096 heartbeat IPC: 0.64714 cumulative IPC: 0.68766 (Simulation time: 0 hr 11 min 4 sec) 
Heartbeat CPU  0 instructions:  315000003 cycles:  356037515 heartbeat IPC: 0.63840 cumulative IPC: 0.68742 (Simulation time: 0 hr 11 min 7 sec) 
Heartbeat CPU  0 instructions:  316000000 cycles:  357704610 heartbeat IPC: 0.59984 cumulative IPC: 0.68695 (Simulation time: 0 hr 11 min 9 sec) 
Heartbeat CPU  0 instructions:  317000002 cycles:  359552561 heartbeat IPC: 0.54114 cumulative IPC: 0.68610 (Simulation time: 0 hr 11 min 11 sec) 
Heartbeat CPU  0 instructions:  318000001 cycles:  361147515 heartbeat IPC: 0.62698 cumulative IPC: 0.68580 (Simulation time: 0 hr 11 min 13 sec) 
Heartbeat CPU  0 instructions:  319000002 cycles:  362371721 heartbeat IPC: 0.81686 cumulative IPC: 0.68630 (Simulation time: 0 hr 11 min 16 sec) 
Heartbeat CPU  0 instructions:  320000000 cycles:  363929851 heartbeat IPC: 0.64179 cumulative IPC: 0.68609 (Simulation time: 0 hr 11 min 18 sec) 
Heartbeat CPU  0 instructions:  321000000 cycles:  365530857 heartbeat IPC: 0.62461 cumulative IPC: 0.68578 (Simulation time: 0 hr 11 min 21 sec) 
Heartbeat CPU  0 instructions:  322000001 cycles:  367244276 heartbeat IPC: 0.58363 cumulative IPC: 0.68524 (Simulation time: 0 hr 11 min 23 sec) 
Heartbeat CPU  0 instructions:  323000000 cycles:  369112848 heartbeat IPC: 0.53517 cumulative IPC: 0.68438 (Simulation time: 0 hr 11 min 25 sec) 
Heartbeat CPU  0 instructions:  324000000 cycles:  370969554 heartbeat IPC: 0.53859 cumulative IPC: 0.68356 (Simulation time: 0 hr 11 min 28 sec) 
Heartbeat CPU  0 instructions:  325000001 cycles:  372086365 heartbeat IPC: 0.89541 cumulative IPC: 0.68428 (Simulation time: 0 hr 11 min 30 sec) 
Heartbeat CPU  0 instructions:  326000003 cycles:  373629524 heartbeat IPC: 0.64802 cumulative IPC: 0.68411 (Simulation time: 0 hr 11 min 33 sec) 
Heartbeat CPU  0 instructions:  327000001 cycles:  375128572 heartbeat IPC: 0.66709 cumulative IPC: 0.68403 (Simulation time: 0 hr 11 min 35 sec) 
Heartbeat CPU  0 instructions:  328000000 cycles:  376850220 heartbeat IPC: 0.58084 cumulative IPC: 0.68350 (Simulation time: 0 hr 11 min 37 sec) 
Heartbeat CPU  0 instructions:  329000000 cycles:  378650462 heartbeat IPC: 0.55548 cumulative IPC: 0.68281 (Simulation time: 0 hr 11 min 40 sec) 
Heartbeat CPU  0 instructions:  330000000 cycles:  380447440 heartbeat IPC: 0.55649 cumulative IPC: 0.68214 (Simulation time: 0 hr 11 min 42 sec) 
Heartbeat CPU  0 instructions:  331000003 cycles:  381547294 heartbeat IPC: 0.90921 cumulative IPC: 0.68287 (Simulation time: 0 hr 11 min 44 sec) 
Heartbeat CPU  0 instructions:  332000000 cycles:  383077572 heartbeat IPC: 0.65347 cumulative IPC: 0.68274 (Simulation time: 0 hr 11 min 47 sec) 
Heartbeat CPU  0 instructions:  333000000 cycles:  384592025 heartbeat IPC: 0.66030 cumulative IPC: 0.68264 (Simulation time: 0 hr 11 min 49 sec) 
Heartbeat CPU  0 instructions:  334000002 cycles:  386350078 heartbeat IPC: 0.56881 cumulative IPC: 0.68206 (Simulation time: 0 hr 11 min 52 sec) 
Heartbeat CPU  0 instructions:  335000002 cycles:  388244791 heartbeat IPC: 0.52778 cumulative IPC: 0.68121 (Simulation time: 0 hr 11 min 54 sec) 
Heartbeat CPU  0 instructions:  336000000 cycles:  389655814 heartbeat IPC: 0.70870 cumulative IPC: 0.68132 (Simulation time: 0 hr 11 min 56 sec) 
Heartbeat CPU  0 instructions:  337000003 cycles:  390574660 heartbeat IPC: 1.08832 cumulative IPC: 0.68240 (Simulation time: 0 hr 11 min 59 sec) 
Heartbeat CPU  0 instructions:  338000001 cycles:  391884073 heartbeat IPC: 0.76370 cumulative IPC: 0.68271 (Simulation time: 0 hr 12 min 1 sec) 
Heartbeat CPU  0 instructions:  339000001 cycles:  393367126 heartbeat IPC: 0.67428 cumulative IPC: 0.68267 (Simulation time: 0 hr 12 min 3 sec) 
Heartbeat CPU  0 instructions:  340000000 cycles:  395085006 heartbeat IPC: 0.58211 cumulative IPC: 0.68218 (Simulation time: 0 hr 12 min 6 sec) 
Heartbeat CPU  0 instructions:  341000000 cycles:  396935112 heartbeat IPC: 0.54051 cumulative IPC: 0.68144 (Simulation time: 0 hr 12 min 8 sec) 
Heartbeat CPU  0 instructions:  342000001 cycles:  398418485 heartbeat IPC: 0.67414 cumulative IPC: 0.68141 (Simulation time: 0 hr 12 min 11 sec) 
Heartbeat CPU  0 instructions:  343000001 cycles:  399638761 heartbeat IPC: 0.81949 cumulative IPC: 0.68188 (Simulation time: 0 hr 12 min 13 sec) 
Heartbeat CPU  0 instructions:  344000000 cycles:  401166570 heartbeat IPC: 0.65453 cumulative IPC: 0.68176 (Simulation time: 0 hr 12 min 15 sec) 
Heartbeat CPU  0 instructions:  345000000 cycles:  402780180 heartbeat IPC: 0.61973 cumulative IPC: 0.68149 (Simulation time: 0 hr 12 min 18 sec) 
Heartbeat CPU  0 instructions:  346000000 cycles:  404615435 heartbeat IPC: 0.54488 cumulative IPC: 0.68079 (Simulation time: 0 hr 12 min 20 sec) 
Heartbeat CPU  0 instructions:  347000000 cycles:  406401158 heartbeat IPC: 0.56000 cumulative IPC: 0.68020 (Simulation time: 0 hr 12 min 22 sec) 
Heartbeat CPU  0 instructions:  348000000 cycles:  407475709 heartbeat IPC: 0.93062 cumulative IPC: 0.68094 (Simulation time: 0 hr 12 min 25 sec) 
Heartbeat CPU  0 instructions:  349000002 cycles:  409021522 heartbeat IPC: 0.64691 cumulative IPC: 0.68079 (Simulation time: 0 hr 12 min 27 sec) 
Heartbeat CPU  0 instructions:  350000000 cycles:  410526021 heartbeat IPC: 0.66467 cumulative IPC: 0.68073 (Simulation time: 0 hr 12 min 30 sec) 
Heartbeat CPU  0 instructions:  351000000 cycles:  412315252 heartbeat IPC: 0.55890 cumulative IPC: 0.68014 (Simulation time: 0 hr 12 min 32 sec) 
Heartbeat CPU  0 instructions:  352000000 cycles:  413980130 heartbeat IPC: 0.60064 cumulative IPC: 0.67978 (Simulation time: 0 hr 12 min 34 sec) 
Heartbeat CPU  0 instructions:  353000002 cycles:  415082076 heartbeat IPC: 0.90749 cumulative IPC: 0.68045 (Simulation time: 0 hr 12 min 37 sec) 
Heartbeat CPU  0 instructions:  354000000 cycles:  416625276 heartbeat IPC: 0.64800 cumulative IPC: 0.68032 (Simulation time: 0 hr 12 min 39 sec) 
Heartbeat CPU  0 instructions:  355000002 cycles:  418147032 heartbeat IPC: 0.65714 cumulative IPC: 0.68023 (Simulation time: 0 hr 12 min 41 sec) 
Heartbeat CPU  0 instructions:  356000000 cycles:  419915543 heartbeat IPC: 0.56545 cumulative IPC: 0.67969 (Simulation time: 0 hr 12 min 44 sec) 
Heartbeat CPU  0 instructions:  357000000 cycles:  421592018 heartbeat IPC: 0.59649 cumulative IPC: 0.67932 (Simulation time: 0 hr 12 min 46 sec) 
Heartbeat CPU  0 instructions:  358000002 cycles:  422737738 heartbeat IPC: 0.87282 cumulative IPC: 0.67990 (Simulation time: 0 hr 12 min 48 sec) 
Heartbeat CPU  0 instructions:  359000002 cycles:  424286304 heartbeat IPC: 0.64576 cumulative IPC: 0.67976 (Simulation time: 0 hr 12 min 51 sec) 
Heartbeat CPU  0 instructions:  360000000 cycles:  425825548 heartbeat IPC: 0.64967 cumulative IPC: 0.67964 (Simulation time: 0 hr 12 min 53 sec) 
Heartbeat CPU  0 instructions:  361000002 cycles:  427592602 heartbeat IPC: 0.56591 cumulative IPC: 0.67912 (Simulation time: 0 hr 12 min 56 sec) 
Heartbeat CPU  0 instructions:  362000001 cycles:  429361640 heartbeat IPC: 0.56528 cumulative IPC: 0.67860 (Simulation time: 0 hr 12 min 58 sec) 
Heartbeat CPU  0 instructions:  363000002 cycles:  430792897 heartbeat IPC: 0.69869 cumulative IPC: 0.67867 (Simulation time: 0 hr 13 min 0 sec) 
Heartbeat CPU  0 instructions:  364000000 cycles:  432040764 heartbeat IPC: 0.80137 cumulative IPC: 0.67907 (Simulation time: 0 hr 13 min 3 sec) 
Heartbeat CPU  0 instructions:  365000002 cycles:  433568731 heartbeat IPC: 0.65447 cumulative IPC: 0.67897 (Simulation time: 0 hr 13 min 5 sec) 
Heartbeat CPU  0 instructions:  366000000 cycles:  435265629 heartbeat IPC: 0.58931 cumulative IPC: 0.67858 (Simulation time: 0 hr 13 min 8 sec) 
Heartbeat CPU  0 instructions:  367000000 cycles:  437115311 heartbeat IPC: 0.54063 cumulative IPC: 0.67793 (Simulation time: 0 hr 13 min 10 sec) 
Heartbeat CPU  0 instructions:  368000000 cycles:  438725734 heartbeat IPC: 0.62095 cumulative IPC: 0.67770 (Simulation time: 0 hr 13 min 13 sec) 
Heartbeat CPU  0 instructions:  369000001 cycles:  439901979 heartbeat IPC: 0.85016 cumulative IPC: 0.67821 (Simulation time: 0 hr 13 min 15 sec) 
Heartbeat CPU  0 instructions:  370000002 cycles:  441457425 heartbeat IPC: 0.64290 cumulative IPC: 0.67808 (Simulation time: 0 hr 13 min 17 sec) 
Heartbeat CPU  0 instructions:  371000000 cycles:  443149545 heartbeat IPC: 0.59097 cumulative IPC: 0.67771 (Simulation time: 0 hr 13 min 20 sec) 
Heartbeat CPU  0 instructions:  372000000 cycles:  445117492 heartbeat IPC: 0.50814 cumulative IPC: 0.67688 (Simulation time: 0 hr 13 min 22 sec) 
Heartbeat CPU  0 instructions:  373000001 cycles:  446347587 heartbeat IPC: 0.81295 cumulative IPC: 0.67729 (Simulation time: 0 hr 13 min 24 sec) 
Heartbeat CPU  0 instructions:  374000001 cycles:  447768536 heartbeat IPC: 0.70376 cumulative IPC: 0.67738 (Simulation time: 0 hr 13 min 27 sec) 
Heartbeat CPU  0 instructions:  375000000 cycles:  449181588 heartbeat IPC: 0.70769 cumulative IPC: 0.67749 (Simulation time: 0 hr 13 min 29 sec) 
Heartbeat CPU  0 instructions:  376000000 cycles:  451113790 heartbeat IPC: 0.51754 cumulative IPC: 0.67673 (Simulation time: 0 hr 13 min 32 sec) 
Heartbeat CPU  0 instructions:  377000001 cycles:  452951768 heartbeat IPC: 0.54408 cumulative IPC: 0.67614 (Simulation time: 0 hr 13 min 34 sec) 
Heartbeat CPU  0 instructions:  378000002 cycles:  454041133 heartbeat IPC: 0.91797 cumulative IPC: 0.67678 (Simulation time: 0 hr 13 min 36 sec) 
Heartbeat CPU  0 instructions:  379000003 cycles:  455578315 heartbeat IPC: 0.65054 cumulative IPC: 0.67668 (Simulation time: 0 hr 13 min 39 sec) 
Heartbeat CPU  0 instructions:  380000000 cycles:  457116165 heartbeat IPC: 0.65026 cumulative IPC: 0.67658 (Simulation time: 0 hr 13 min 41 sec) 
Heartbeat CPU  0 instructions:  381000001 cycles:  459007876 heartbeat IPC: 0.52862 cumulative IPC: 0.67591 (Simulation time: 0 hr 13 min 44 sec) 
Heartbeat CPU  0 instructions:  382000001 cycles:  460559889 heartbeat IPC: 0.64432 cumulative IPC: 0.67579 (Simulation time: 0 hr 13 min 46 sec) 
Heartbeat CPU  0 instructions:  383000003 cycles:  461784871 heartbeat IPC: 0.81634 cumulative IPC: 0.67620 (Simulation time: 0 hr 13 min 48 sec) 
Heartbeat CPU  0 instructions:  384000000 cycles:  463320590 heartbeat IPC: 0.65116 cumulative IPC: 0.67611 (Simulation time: 0 hr 13 min 51 sec) 
Heartbeat CPU  0 instructions:  385000000 cycles:  465084400 heartbeat IPC: 0.56695 cumulative IPC: 0.67566 (Simulation time: 0 hr 13 min 53 sec) 
Heartbeat CPU  0 instructions:  386000000 cycles:  467050310 heartbeat IPC: 0.50867 cumulative IPC: 0.67488 (Simulation time: 0 hr 13 min 55 sec) 
Heartbeat CPU  0 instructions:  387000000 cycles:  468391077 heartbeat IPC: 0.74584 cumulative IPC: 0.67510 (Simulation time: 0 hr 13 min 58 sec) 
Heartbeat CPU  0 instructions:  388000000 cycles:  469752915 heartbeat IPC: 0.73430 cumulative IPC: 0.67529 (Simulation time: 0 hr 14 min 0 sec) 
Heartbeat CPU  0 instructions:  389000000 cycles:  471202021 heartbeat IPC: 0.69008 cumulative IPC: 0.67534 (Simulation time: 0 hr 14 min 2 sec) 
Heartbeat CPU  0 instructions:  390000003 cycles:  473132363 heartbeat IPC: 0.51804 cumulative IPC: 0.67464 (Simulation time: 0 hr 14 min 5 sec) 
Heartbeat CPU  0 instructions:  391000003 cycles:  475041994 heartbeat IPC: 0.52366 cumulative IPC: 0.67397 (Simulation time: 0 hr 14 min 7 sec) 
Heartbeat CPU  0 instructions:  392000000 cycles:  476154145 heartbeat IPC: 0.89916 cumulative IPC: 0.67455 (Simulation time: 0 hr 14 min 10 sec) 
Heartbeat CPU  0 instructions:  393000001 cycles:  477691225 heartbeat IPC: 0.65058 cumulative IPC: 0.67446 (Simulation time: 0 hr 14 min 12 sec) 
Heartbeat CPU  0 instructions:  394000002 cycles:  479208580 heartbeat IPC: 0.65904 cumulative IPC: 0.67441 (Simulation time: 0 hr 14 min 14 sec) 
Heartbeat CPU  0 instructions:  395000002 cycles:  481110060 heartbeat IPC: 0.52591 cumulative IPC: 0.67376 (Simulation time: 0 hr 14 min 17 sec) 
Heartbeat CPU  0 instructions:  396000000 cycles:  482956337 heartbeat IPC: 0.54163 cumulative IPC: 0.67321 (Simulation time: 0 hr 14 min 19 sec) 
Heartbeat CPU  0 instructions:  397000000 cycles:  483872917 heartbeat IPC: 1.09101 cumulative IPC: 0.67408 (Simulation time: 0 hr 14 min 21 sec) 
Heartbeat CPU  0 instructions:  398000001 cycles:  484940286 heartbeat IPC: 0.93688 cumulative IPC: 0.67471 (Simulation time: 0 hr 14 min 23 sec) 
Heartbeat CPU  0 instructions:  399000000 cycles:  486469212 heartbeat IPC: 0.65405 cumulative IPC: 0.67464 (Simulation time: 0 hr 14 min 26 sec) 
Heartbeat CPU  0 instructions:  400000000 cycles:  488000101 heartbeat IPC: 0.65322 cumulative IPC: 0.67457 (Simulation time: 0 hr 14 min 28 sec) 
Heartbeat CPU  0 instructions:  401000002 cycles:  489849819 heartbeat IPC: 0.54062 cumulative IPC: 0.67401 (Simulation time: 0 hr 14 min 31 sec) 
Heartbeat CPU  0 instructions:  402000003 cycles:  491689794 heartbeat IPC: 0.54349 cumulative IPC: 0.67348 (Simulation time: 0 hr 14 min 33 sec) 
Heartbeat CPU  0 instructions:  403000002 cycles:  492853582 heartbeat IPC: 0.85926 cumulative IPC: 0.67396 (Simulation time: 0 hr 14 min 35 sec) 
Heartbeat CPU  0 instructions:  404000000 cycles:  494326666 heartbeat IPC: 0.67885 cumulative IPC: 0.67398 (Simulation time: 0 hr 14 min 38 sec) 
Heartbeat CPU  0 instructions:  405000001 cycles:  495744611 heartbeat IPC: 0.70525 cumulative IPC: 0.67407 (Simulation time: 0 hr 14 min 40 sec) 
Heartbeat CPU  0 instructions:  406000003 cycles:  497701830 heartbeat IPC: 0.51093 cumulative IPC: 0.67337 (Simulation time: 0 hr 14 min 43 sec) 
Heartbeat CPU  0 instructions:  407000000 cycles:  499487434 heartbeat IPC: 0.56003 cumulative IPC: 0.67293 (Simulation time: 0 hr 14 min 45 sec) 
Heartbeat CPU  0 instructions:  408000000 cycles:  500852750 heartbeat IPC: 0.73243 cumulative IPC: 0.67310 (Simulation time: 0 hr 14 min 47 sec) 
Heartbeat CPU  0 instructions:  409000001 cycles:  502168220 heartbeat IPC: 0.76019 cumulative IPC: 0.67335 (Simulation time: 0 hr 14 min 49 sec) 
Heartbeat CPU  0 instructions:  410000002 cycles:  503656168 heartbeat IPC: 0.67207 cumulative IPC: 0.67335 (Simulation time: 0 hr 14 min 52 sec) 
Heartbeat CPU  0 instructions:  411000001 cycles:  505472653 heartbeat IPC: 0.55051 cumulative IPC: 0.67287 (Simulation time: 0 hr 14 min 54 sec) 
Heartbeat CPU  0 instructions:  412000000 cycles:  507349778 heartbeat IPC: 0.53273 cumulative IPC: 0.67230 (Simulation time: 0 hr 14 min 57 sec) 
Heartbeat CPU  0 instructions:  413000001 cycles:  508757525 heartbeat IPC: 0.71036 cumulative IPC: 0.67242 (Simulation time: 0 hr 14 min 59 sec) 
Heartbeat CPU  0 instructions:  414000001 cycles:  510074031 heartbeat IPC: 0.75959 cumulative IPC: 0.67266 (Simulation time: 0 hr 15 min 1 sec) 
Heartbeat CPU  0 instructions:  415000000 cycles:  511577249 heartbeat IPC: 0.66524 cumulative IPC: 0.67264 (Simulation time: 0 hr 15 min 4 sec) 
Heartbeat CPU  0 instructions:  416000000 cycles:  513297189 heartbeat IPC: 0.58142 cumulative IPC: 0.67230 (Simulation time: 0 hr 15 min 6 sec) 
Heartbeat CPU  0 instructions:  417000003 cycles:  515161241 heartbeat IPC: 0.53647 cumulative IPC: 0.67177 (Simulation time: 0 hr 15 min 9 sec) 
Heartbeat CPU  0 instructions:  418000001 cycles:  517065597 heartbeat IPC: 0.52511 cumulative IPC: 0.67118 (Simulation time: 0 hr 15 min 11 sec) 
Heartbeat CPU  0 instructions:  419000000 cycles:  518453250 heartbeat IPC: 0.72064 cumulative IPC: 0.67132 (Simulation time: 0 hr 15 min 13 sec) 
Heartbeat CPU  0 instructions:  420000000 cycles:  519793294 heartbeat IPC: 0.74624 cumulative IPC: 0.67153 (Simulation time: 0 hr 15 min 16 sec) 
Heartbeat CPU  0 instructions:  421000001 cycles:  521273244 heartbeat IPC: 0.67570 cumulative IPC: 0.67155 (Simulation time: 0 hr 15 min 18 sec) 
Heartbeat CPU  0 instructions:  422000000 cycles:  522988328 heartbeat IPC: 0.58306 cumulative IPC: 0.67123 (Simulation time: 0 hr 15 min 21 sec) 
Heartbeat CPU  0 instructions:  423000000 cycles:  524804064 heartbeat IPC: 0.55074 cumulative IPC: 0.67078 (Simulation time: 0 hr 15 min 23 sec) 
Heartbeat CPU  0 instructions:  424000000 cycles:  526476434 heartbeat IPC: 0.59795 cumulative IPC: 0.67052 (Simulation time: 0 hr 15 min 26 sec) 
Heartbeat CPU  0 instructions:  425000001 cycles:  528259225 heartbeat IPC: 0.56092 cumulative IPC: 0.67012 (Simulation time: 0 hr 15 min 28 sec) 
Heartbeat CPU  0 instructions:  426000001 cycles:  529369584 heartbeat IPC: 0.90061 cumulative IPC: 0.67065 (Simulation time: 0 hr 15 min 30 sec) 
Heartbeat CPU  0 instructions:  427000000 cycles:  530897996 heartbeat IPC: 0.65427 cumulative IPC: 0.67060 (Simulation time: 0 hr 15 min 33 sec) 
Heartbeat CPU  0 instructions:  428000000 cycles:  532390604 heartbeat IPC: 0.66997 cumulative IPC: 0.67059 (Simulation time: 0 hr 15 min 35 sec) 
Heartbeat CPU  0 instructions:  429000002 cycles:  534202535 heartbeat IPC: 0.55190 cumulative IPC: 0.67016 (Simulation time: 0 hr 15 min 37 sec) 
Heartbeat CPU  0 instructions:  430000001 cycles:  535903971 heartbeat IPC: 0.58774 cumulative IPC: 0.66987 (Simulation time: 0 hr 15 min 40 sec) 
Heartbeat CPU  0 instructions:  431000001 cycles:  537648269 heartbeat IPC: 0.57330 cumulative IPC: 0.66953 (Simulation time: 0 hr 15 min 42 sec) 
Heartbeat CPU  0 instructions:  432000000 cycles:  539052055 heartbeat IPC: 0.71236 cumulative IPC: 0.66965 (Simulation time: 0 hr 15 min 44 sec) 
Heartbeat CPU  0 instructions:  433000003 cycles:  540350681 heartbeat IPC: 0.77005 cumulative IPC: 0.66991 (Simulation time: 0 hr 15 min 47 sec) 
Heartbeat CPU  0 instructions:  434000003 cycles:  541853831 heartbeat IPC: 0.66527 cumulative IPC: 0.66990 (Simulation time: 0 hr 15 min 49 sec) 
Heartbeat CPU  0 instructions:  435000000 cycles:  543492313 heartbeat IPC: 0.61032 cumulative IPC: 0.66970 (Simulation time: 0 hr 15 min 51 sec) 
Heartbeat CPU  0 instructions:  436000000 cycles:  545293620 heartbeat IPC: 0.55515 cumulative IPC: 0.66929 (Simulation time: 0 hr 15 min 54 sec) 
Heartbeat CPU  0 instructions:  437000001 cycles:  547040782 heartbeat IPC: 0.57236 cumulative IPC: 0.66896 (Simulation time: 0 hr 15 min 56 sec) 
Heartbeat CPU  0 instructions:  438000000 cycles:  548422462 heartbeat IPC: 0.72376 cumulative IPC: 0.66911 (Simulation time: 0 hr 15 min 58 sec) 
Heartbeat CPU  0 instructions:  439000002 cycles:  549702357 heartbeat IPC: 0.78132 cumulative IPC: 0.66939 (Simulation time: 0 hr 16 min 1 sec) 
Heartbeat CPU  0 instructions:  440000000 cycles:  551202470 heartbeat IPC: 0.66662 cumulative IPC: 0.66938 (Simulation time: 0 hr 16 min 3 sec) 
Heartbeat CPU  0 instructions:  441000002 cycles:  552830090 heartbeat IPC: 0.61440 cumulative IPC: 0.66921 (Simulation time: 0 hr 16 min 5 sec) 
Heartbeat CPU  0 instructions:  442000000 cycles:  554624751 heartbeat IPC: 0.55721 cumulative IPC: 0.66881 (Simulation time: 0 hr 16 min 8 sec) 
Heartbeat CPU  0 instructions:  443000002 cycles:  556385502 heartbeat IPC: 0.56794 cumulative IPC: 0.66847 (Simulation time: 0 hr 16 min 10 sec) 
Heartbeat CPU  0 instructions:  444000000 cycles:  557728209 heartbeat IPC: 0.74476 cumulative IPC: 0.66867 (Simulation time: 0 hr 16 min 12 sec) 
Heartbeat CPU  0 instructions:  445000000 cycles:  559063573 heartbeat IPC: 0.74886 cumulative IPC: 0.66887 (Simulation time: 0 hr 16 min 15 sec) 
Heartbeat CPU  0 instructions:  446000003 cycles:  560527583 heartbeat IPC: 0.68306 cumulative IPC: 0.66891 (Simulation time: 0 hr 16 min 17 sec) 
Heartbeat CPU  0 instructions:  447000003 cycles:  562218456 heartbeat IPC: 0.59141 cumulative IPC: 0.66866 (Simulation time: 0 hr 16 min 20 sec) 
Heartbeat CPU  0 instructions:  448000000 cycles:  564053968 heartbeat IPC: 0.54481 cumulative IPC: 0.66823 (Simulation time: 0 hr 16 min 22 sec) 
Heartbeat CPU  0 instructions:  449000001 cycles:  565741798 heartbeat IPC: 0.59248 cumulative IPC: 0.66798 (Simulation time: 0 hr 16 min 25 sec) 
Heartbeat CPU  0 instructions:  450000002 cycles:  567459859 heartbeat IPC: 0.58205 cumulative IPC: 0.66770 (Simulation time: 0 hr 16 min 27 sec) 
Heartbeat CPU  0 instructions:  451000001 cycles:  568563581 heartbeat IPC: 0.90602 cumulative IPC: 0.66820 (Simulation time: 0 hr 16 min 29 sec) 
Heartbeat CPU  0 instructions:  452000000 cycles:  570095568 heartbeat IPC: 0.65275 cumulative IPC: 0.66815 (Simulation time: 0 hr 16 min 32 sec) 
Heartbeat CPU  0 instructions:  453000000 cycles:  571584740 heartbeat IPC: 0.67151 cumulative IPC: 0.66816 (Simulation time: 0 hr 16 min 34 sec) 
Heartbeat CPU  0 instructions:  454000002 cycles:  573359103 heartbeat IPC: 0.56358 cumulative IPC: 0.66781 (Simulation time: 0 hr 16 min 37 sec) 
Heartbeat CPU  0 instructions:  455000002 cycles:  575074607 heartbeat IPC: 0.58292 cumulative IPC: 0.66754 (Simulation time: 0 hr 16 min 39 sec) 
Heartbeat CPU  0 instructions:  456000000 cycles:  576799562 heartbeat IPC: 0.57972 cumulative IPC: 0.66726 (Simulation time: 0 hr 16 min 41 sec) 
Heartbeat CPU  0 instructions:  457000003 cycles:  578139327 heartbeat IPC: 0.74640 cumulative IPC: 0.66745 (Simulation time: 0 hr 16 min 44 sec) 
Heartbeat CPU  0 instructions:  458000001 cycles:  579493444 heartbeat IPC: 0.73849 cumulative IPC: 0.66763 (Simulation time: 0 hr 16 min 46 sec) 
Heartbeat CPU  0 instructions:  459000000 cycles:  580972692 heartbeat IPC: 0.67602 cumulative IPC: 0.66766 (Simulation time: 0 hr 16 min 48 sec) 
Heartbeat CPU  0 instructions:  460000000 cycles:  582593410 heartbeat IPC: 0.61701 cumulative IPC: 0.66751 (Simulation time: 0 hr 16 min 51 sec) 
Heartbeat CPU  0 instructions:  461000002 cycles:  584294383 heartbeat IPC: 0.58790 cumulative IPC: 0.66725 (Simulation time: 0 hr 16 min 53 sec) 
Heartbeat CPU  0 instructions:  462000000 cycles:  586022148 heartbeat IPC: 0.57878 cumulative IPC: 0.66697 (Simulation time: 0 hr 16 min 56 sec) 
Heartbeat CPU  0 instructions:  463000003 cycles:  587398796 heartbeat IPC: 0.72640 cumulative IPC: 0.66712 (Simulation time: 0 hr 16 min 58 sec) 
Heartbeat CPU  0 instructions:  464000000 cycles:  588683515 heartbeat IPC: 0.77838 cumulative IPC: 0.66739 (Simulation time: 0 hr 17 min 0 sec) 
Heartbeat CPU  0 instructions:  465000000 cycles:  590184116 heartbeat IPC: 0.66640 cumulative IPC: 0.66738 (Simulation time: 0 hr 17 min 3 sec) 
Heartbeat CPU  0 instructions:  466000002 cycles:  591783431 heartbeat IPC: 0.62527 cumulative IPC: 0.66726 (Simulation time: 0 hr 17 min 5 sec) 
Heartbeat CPU  0 instructions:  467000002 cycles:  593472977 heartbeat IPC: 0.59187 cumulative IPC: 0.66703 (Simulation time: 0 hr 17 min 7 sec) 
Heartbeat CPU  0 instructions:  468000000 cycles:  595218278 heartbeat IPC: 0.57297 cumulative IPC: 0.66673 (Simulation time: 0 hr 17 min 10 sec) 
Heartbeat CPU  0 instructions:  469000001 cycles:  596279306 heartbeat IPC: 0.94248 cumulative IPC: 0.66726 (Simulation time: 0 hr 17 min 12 sec) 
Heartbeat CPU  0 instructions:  470000002 cycles:  597810602 heartbeat IPC: 0.65304 cumulative IPC: 0.66722 (Simulation time: 0 hr 17 min 14 sec) 
Heartbeat CPU  0 instructions:  471000001 cycles:  599254789 heartbeat IPC: 0.69243 cumulative IPC: 0.66729 (Simulation time: 0 hr 17 min 17 sec) 
Heartbeat CPU  0 instructions:  472000000 cycles:  600927778 heartbeat IPC: 0.59773 cumulative IPC: 0.66708 (Simulation time: 0 hr 17 min 19 sec) 
Heartbeat CPU  0 instructions:  473000003 cycles:  602652535 heartbeat IPC: 0.57979 cumulative IPC: 0.66681 (Simulation time: 0 hr 17 min 21 sec) 
Heartbeat CPU  0 instructions:  474000003 cycles:  603912893 heartbeat IPC: 0.79343 cumulative IPC: 0.66709 (Simulation time: 0 hr 17 min 23 sec) 
Heartbeat CPU  0 instructions:  475000003 cycles:  604853087 heartbeat IPC: 1.06361 cumulative IPC: 0.66776 (Simulation time: 0 hr 17 min 25 sec) 
Heartbeat CPU  0 instructions:  476000000 cycles:  606216027 heartbeat IPC: 0.73371 cumulative IPC: 0.66792 (Simulation time: 0 hr 17 min 28 sec) 
Heartbeat CPU  0 instructions:  477000000 cycles:  607659120 heartbeat IPC: 0.69296 cumulative IPC: 0.66798 (Simulation time: 0 hr 17 min 30 sec) 
Heartbeat CPU  0 instructions:  478000002 cycles:  609305446 heartbeat IPC: 0.60741 cumulative IPC: 0.66780 (Simulation time: 0 hr 17 min 33 sec) 
Heartbeat CPU  0 instructions:  479000003 cycles:  611046274 heartbeat IPC: 0.57444 cumulative IPC: 0.66752 (Simulation time: 0 hr 17 min 35 sec) 
Heartbeat CPU  0 instructions:  480000000 cycles:  612493277 heartbeat IPC: 0.69108 cumulative IPC: 0.66758 (Simulation time: 0 hr 17 min 37 sec) 
Heartbeat CPU  0 instructions:  481000002 cycles:  613698974 heartbeat IPC: 0.82940 cumulative IPC: 0.66792 (Simulation time: 0 hr 17 min 40 sec) 
Heartbeat CPU  0 instructions:  482000000 cycles:  615242319 heartbeat IPC: 0.64794 cumulative IPC: 0.66787 (Simulation time: 0 hr 17 min 42 sec) 
Heartbeat CPU  0 instructions:  483000003 cycles:  616822665 heartbeat IPC: 0.63277 cumulative IPC: 0.66777 (Simulation time: 0 hr 17 min 45 sec) 
Heartbeat CPU  0 instructions:  484000000 cycles:  618498533 heartbeat IPC: 0.59670 cumulative IPC: 0.66756 (Simulation time: 0 hr 17 min 47 sec) 
Heartbeat CPU  0 instructions:  485000003 cycles:  620185963 heartbeat IPC: 0.59262 cumulative IPC: 0.66734 (Simulation time: 0 hr 17 min 49 sec) 
Heartbeat CPU  0 instructions:  486000000 cycles:  621958920 heartbeat IPC: 0.56403 cumulative IPC: 0.66703 (Simulation time: 0 hr 17 min 52 sec) 
Heartbeat CPU  0 instructions:  487000002 cycles:  623065554 heartbeat IPC: 0.90364 cumulative IPC: 0.66748 (Simulation time: 0 hr 17 min 54 sec) 
Heartbeat CPU  0 instructions:  488000000 cycles:  624592215 heartbeat IPC: 0.65502 cumulative IPC: 0.66745 (Simulation time: 0 hr 17 min 56 sec) 
Heartbeat CPU  0 instructions:  489000000 cycles:  626031115 heartbeat IPC: 0.69498 cumulative IPC: 0.66751 (Simulation time: 0 hr 17 min 59 sec) 
Heartbeat CPU  0 instructions:  490000000 cycles:  627746134 heartbeat IPC: 0.58308 cumulative IPC: 0.66727 (Simulation time: 0 hr 18 min 1 sec) 
Heartbeat CPU  0 instructions:  491000002 cycles:  629460263 heartbeat IPC: 0.58339 cumulative IPC: 0.66702 (Simulation time: 0 hr 18 min 4 sec) 
Heartbeat CPU  0 instructions:  492000000 cycles:  631232775 heartbeat IPC: 0.56417 cumulative IPC: 0.66671 (Simulation time: 0 hr 18 min 6 sec) 
Heartbeat CPU  0 instructions:  493000002 cycles:  632467545 heartbeat IPC: 0.80987 cumulative IPC: 0.66701 (Simulation time: 0 hr 18 min 8 sec) 
Heartbeat CPU  0 instructions:  494000000 cycles:  633890983 heartbeat IPC: 0.70252 cumulative IPC: 0.66710 (Simulation time: 0 hr 18 min 11 sec) 
Heartbeat CPU  0 instructions:  495000001 cycles:  635302949 heartbeat IPC: 0.70823 cumulative IPC: 0.66719 (Simulation time: 0 hr 18 min 13 sec) 
Heartbeat CPU  0 instructions:  496000000 cycles:  637020329 heartbeat IPC: 0.58228 cumulative IPC: 0.66695 (Simulation time: 0 hr 18 min 15 sec) 
Heartbeat CPU  0 instructions:  497000001 cycles:  638746982 heartbeat IPC: 0.57916 cumulative IPC: 0.66669 (Simulation time: 0 hr 18 min 18 sec) 
Heartbeat CPU  0 instructions:  498000000 cycles:  640503033 heartbeat IPC: 0.56946 cumulative IPC: 0.66641 (Simulation time: 0 hr 18 min 20 sec) 
Heartbeat CPU  0 instructions:  499000003 cycles:  641872741 heartbeat IPC: 0.73008 cumulative IPC: 0.66655 (Simulation time: 0 hr 18 min 22 sec) 
Heartbeat CPU  0 instructions:  500000000 cycles:  643211071 heartbeat IPC: 0.74720 cumulative IPC: 0.66673 (Simulation time: 0 hr 18 min 25 sec) 
Heartbeat CPU  0 instructions:  501000002 cycles:  644714704 heartbeat IPC: 0.66506 cumulative IPC: 0.66673 (Simulation time: 0 hr 18 min 27 sec) 
Heartbeat CPU  0 instructions:  502000000 cycles:  646393241 heartbeat IPC: 0.59576 cumulative IPC: 0.66653 (Simulation time: 0 hr 18 min 30 sec) 
Heartbeat CPU  0 instructions:  503000000 cycles:  648056675 heartbeat IPC: 0.60117 cumulative IPC: 0.66635 (Simulation time: 0 hr 18 min 32 sec) 
Heartbeat CPU  0 instructions:  504000000 cycles:  649813464 heartbeat IPC: 0.56922 cumulative IPC: 0.66607 (Simulation time: 0 hr 18 min 34 sec) 
Heartbeat CPU  0 instructions:  505000000 cycles:  651541030 heartbeat IPC: 0.57885 cumulative IPC: 0.66582 (Simulation time: 0 hr 18 min 37 sec) 
Heartbeat CPU  0 instructions:  506000001 cycles:  652734473 heartbeat IPC: 0.83791 cumulative IPC: 0.66616 (Simulation time: 0 hr 18 min 39 sec) 
Heartbeat CPU  0 instructions:  507000000 cycles:  654273649 heartbeat IPC: 0.64970 cumulative IPC: 0.66612 (Simulation time: 0 hr 18 min 41 sec) 
Heartbeat CPU  0 instructions:  508000000 cycles:  655756723 heartbeat IPC: 0.67428 cumulative IPC: 0.66614 (Simulation time: 0 hr 18 min 44 sec) 
Heartbeat CPU  0 instructions:  509000003 cycles:  657509195 heartbeat IPC: 0.57062 cumulative IPC: 0.66587 (Simulation time: 0 hr 18 min 46 sec) 
Heartbeat CPU  0 instructions:  510000002 cycles:  659216879 heartbeat IPC: 0.58559 cumulative IPC: 0.66564 (Simulation time: 0 hr 18 min 49 sec) 
Heartbeat CPU  0 instructions:  511000003 cycles:  660989510 heartbeat IPC: 0.56413 cumulative IPC: 0.66535 (Simulation time: 0 hr 18 min 51 sec) 
Heartbeat CPU  0 instructions:  512000000 cycles:  662622626 heartbeat IPC: 0.61232 cumulative IPC: 0.66521 (Simulation time: 0 hr 18 min 53 sec) 
Heartbeat CPU  0 instructions:  513000000 cycles:  663850199 heartbeat IPC: 0.81462 cumulative IPC: 0.66551 (Simulation time: 0 hr 18 min 56 sec) 
Heartbeat CPU  0 instructions:  514000000 cycles:  665399789 heartbeat IPC: 0.64533 cumulative IPC: 0.66546 (Simulation time: 0 hr 18 min 58 sec) 
Heartbeat CPU  0 instructions:  515000000 cycles:  666970979 heartbeat IPC: 0.63646 cumulative IPC: 0.66538 (Simulation time: 0 hr 19 min 0 sec) 
Heartbeat CPU  0 instructions:  516000000 cycles:  668674920 heartbeat IPC: 0.58687 cumulative IPC: 0.66517 (Simulation time: 0 hr 19 min 3 sec) 
Heartbeat CPU  0 instructions:  517000000 cycles:  670365520 heartbeat IPC: 0.59151 cumulative IPC: 0.66497 (Simulation time: 0 hr 19 min 5 sec) 
Heartbeat CPU  0 instructions:  518000003 cycles:  672137721 heartbeat IPC: 0.56427 cumulative IPC: 0.66469 (Simulation time: 0 hr 19 min 8 sec) 
Heartbeat CPU  0 instructions:  519000003 cycles:  673677275 heartbeat IPC: 0.64954 cumulative IPC: 0.66465 (Simulation time: 0 hr 19 min 10 sec) 
Heartbeat CPU  0 instructions:  520000000 cycles:  674943478 heartbeat IPC: 0.78976 cumulative IPC: 0.66490 (Simulation time: 0 hr 19 min 12 sec) 
Heartbeat CPU  0 instructions:  521000001 cycles:  676486109 heartbeat IPC: 0.64824 cumulative IPC: 0.66486 (Simulation time: 0 hr 19 min 15 sec) 
Heartbeat CPU  0 instructions:  522000001 cycles:  678084116 heartbeat IPC: 0.62578 cumulative IPC: 0.66476 (Simulation time: 0 hr 19 min 17 sec) 
Heartbeat CPU  0 instructions:  523000000 cycles:  679781121 heartbeat IPC: 0.58927 cumulative IPC: 0.66456 (Simulation time: 0 hr 19 min 20 sec) 
Heartbeat CPU  0 instructions:  524000000 cycles:  681432001 heartbeat IPC: 0.60574 cumulative IPC: 0.66441 (Simulation time: 0 hr 19 min 22 sec) 
Heartbeat CPU  0 instructions:  525000001 cycles:  683224670 heartbeat IPC: 0.55783 cumulative IPC: 0.66411 (Simulation time: 0 hr 19 min 24 sec) 
Heartbeat CPU  0 instructions:  526000003 cycles:  684668274 heartbeat IPC: 0.69271 cumulative IPC: 0.66418 (Simulation time: 0 hr 19 min 27 sec) 
Heartbeat CPU  0 instructions:  527000002 cycles:  685997723 heartbeat IPC: 0.75219 cumulative IPC: 0.66436 (Simulation time: 0 hr 19 min 29 sec) 
Heartbeat CPU  0 instructions:  528000000 cycles:  687505671 heartbeat IPC: 0.66315 cumulative IPC: 0.66435 (Simulation time: 0 hr 19 min 31 sec) 
Heartbeat CPU  0 instructions:  529000003 cycles:  689152599 heartbeat IPC: 0.60719 cumulative IPC: 0.66421 (Simulation time: 0 hr 19 min 34 sec) 
Heartbeat CPU  0 instructions:  530000003 cycles:  690838559 heartbeat IPC: 0.59313 cumulative IPC: 0.66402 (Simulation time: 0 hr 19 min 36 sec) 
Heartbeat CPU  0 instructions:  531000002 cycles:  692500478 heartbeat IPC: 0.60171 cumulative IPC: 0.66386 (Simulation time: 0 hr 19 min 39 sec) 
Heartbeat CPU  0 instructions:  532000000 cycles:  694303558 heartbeat IPC: 0.55461 cumulative IPC: 0.66356 (Simulation time: 0 hr 19 min 41 sec) 
Heartbeat CPU  0 instructions:  533000000 cycles:  695724662 heartbeat IPC: 0.70368 cumulative IPC: 0.66365 (Simulation time: 0 hr 19 min 43 sec) 
[...]
Heartbeat CPU  0 instructions:  486000000 cycles: 2936266638 heartbeat IPC: 0.43483 cumulative IPC: 0.13650 (Simulation time: 0 hr 41 min 25 sec) 
Heartbeat CPU  0 instructions:  487000000 cycles: 2938353862 heartbeat IPC: 0.47911 cumulative IPC: 0.13675 (Simulation time: 0 hr 41 min 29 sec) 
Heartbeat CPU  0 instructions:  488000000 cycles: 2940106294 heartbeat IPC: 0.57064 cumulative IPC: 0.13702 (Simulation time: 0 hr 41 min 31 sec) 
Heartbeat CPU  0 instructions:  489000003 cycles: 2942596354 heartbeat IPC: 0.40160 cumulative IPC: 0.13725 (Simulation time: 0 hr 41 min 35 sec) 
Heartbeat CPU  0 instructions:  490000001 cycles: 2944955264 heartbeat IPC: 0.42392 cumulative IPC: 0.13749 (Simulation time: 0 hr 41 min 38 sec) 
Heartbeat CPU  0 instructions:  491000002 cycles: 2946993688 heartbeat IPC: 0.49058 cumulative IPC: 0.13775 (Simulation time: 0 hr 41 min 41 sec) 
Heartbeat CPU  0 instructions:  492000000 cycles: 2949091200 heartbeat IPC: 0.47675 cumulative IPC: 0.13800 (Simulation time: 0 hr 41 min 44 sec) 
Heartbeat CPU  0 instructions:  493000000 cycles: 2951143778 heartbeat IPC: 0.48719 cumulative IPC: 0.13825 (Simulation time: 0 hr 41 min 47 sec) 
Heartbeat CPU  0 instructions:  494000003 cycles: 2953323732 heartbeat IPC: 0.45873 cumulative IPC: 0.13849 (Simulation time: 0 hr 41 min 50 sec) 
Heartbeat CPU  0 instructions:  495000003 cycles: 2955402087 heartbeat IPC: 0.48115 cumulative IPC: 0.13874 (Simulation time: 0 hr 41 min 53 sec) 
Heartbeat CPU  0 instructions:  496000000 cycles: 2957520520 heartbeat IPC: 0.47205 cumulative IPC: 0.13899 (Simulation time: 0 hr 41 min 56 sec) 
Heartbeat CPU  0 instructions:  497000001 cycles: 2959624194 heartbeat IPC: 0.47536 cumulative IPC: 0.13924 (Simulation time: 0 hr 42 min 0 sec) 
Heartbeat CPU  0 instructions:  498000000 cycles: 2961700248 heartbeat IPC: 0.48168 cumulative IPC: 0.13949 (Simulation time: 0 hr 42 min 2 sec) 
Heartbeat CPU  0 instructions:  499000002 cycles: 2963956182 heartbeat IPC: 0.44328 cumulative IPC: 0.13973 (Simulation time: 0 hr 42 min 6 sec) 
Heartbeat CPU  0 instructions:  500000000 cycles: 2966505473 heartbeat IPC: 0.39227 cumulative IPC: 0.13995 (Simulation time: 0 hr 42 min 9 sec) 
Heartbeat CPU  0 instructions:  501000000 cycles: 2969269115 heartbeat IPC: 0.36184 cumulative IPC: 0.14017 (Simulation time: 0 hr 42 min 13 sec) 
Heartbeat CPU  0 instructions:  502000002 cycles: 2971365777 heartbeat IPC: 0.47695 cumulative IPC: 0.14042 (Simulation time: 0 hr 42 min 16 sec) 
Heartbeat CPU  0 instructions:  503000001 cycles: 2973473325 heartbeat IPC: 0.47448 cumulative IPC: 0.14066 (Simulation time: 0 hr 42 min 19 sec) 
Heartbeat CPU  0 instructions:  504000000 cycles: 2976160873 heartbeat IPC: 0.37209 cumulative IPC: 0.14088 (Simulation time: 0 hr 42 min 23 sec) 
Heartbeat CPU  0 instructions:  505000003 cycles: 2979126373 heartbeat IPC: 0.33721 cumulative IPC: 0.14108 (Simulation time: 0 hr 42 min 26 sec) 
Heartbeat CPU  0 instructions:  506000000 cycles: 2981593256 heartbeat IPC: 0.40537 cumulative IPC: 0.14131 (Simulation time: 0 hr 42 min 30 sec) 
Heartbeat CPU  0 instructions:  507000003 cycles: 2984015201 heartbeat IPC: 0.41289 cumulative IPC: 0.14154 (Simulation time: 0 hr 42 min 33 sec) 
Heartbeat CPU  0 instructions:  508000000 cycles: 2986326849 heartbeat IPC: 0.43259 cumulative IPC: 0.14177 (Simulation time: 0 hr 42 min 36 sec) 
Heartbeat CPU  0 instructions:  509000000 cycles: 2988592031 heartbeat IPC: 0.44147 cumulative IPC: 0.14201 (Simulation time: 0 hr 42 min 39 sec) 
Heartbeat CPU  0 instructions:  510000000 cycles: 2990776113 heartbeat IPC: 0.45786 cumulative IPC: 0.14225 (Simulation time: 0 hr 42 min 43 sec) 
Heartbeat CPU  0 instructions:  511000000 cycles: 2992922244 heartbeat IPC: 0.46595 cumulative IPC: 0.14249 (Simulation time: 0 hr 42 min 46 sec) 
Heartbeat CPU  0 instructions:  512000000 cycles: 2995106403 heartbeat IPC: 0.45784 cumulative IPC: 0.14272 (Simulation time: 0 hr 42 min 49 sec) 
Heartbeat CPU  0 instructions:  513000003 cycles: 2997307595 heartbeat IPC: 0.45430 cumulative IPC: 0.14296 (Simulation time: 0 hr 42 min 52 sec) 
Heartbeat CPU  0 instructions:  514000000 cycles: 2999963927 heartbeat IPC: 0.37646 cumulative IPC: 0.14318 (Simulation time: 0 hr 42 min 56 sec) 
Heartbeat CPU  0 instructions:  515000001 cycles: 3002313714 heartbeat IPC: 0.42557 cumulative IPC: 0.14341 (Simulation time: 0 hr 42 min 59 sec) 
Heartbeat CPU  0 instructions:  516000000 cycles: 3004613843 heartbeat IPC: 0.43476 cumulative IPC: 0.14364 (Simulation time: 0 hr 43 min 2 sec) 
Heartbeat CPU  0 instructions:  517000002 cycles: 3007289967 heartbeat IPC: 0.37368 cumulative IPC: 0.14385 (Simulation time: 0 hr 43 min 6 sec) 
Heartbeat CPU  0 instructions:  518000000 cycles: 3009463353 heartbeat IPC: 0.46011 cumulative IPC: 0.14409 (Simulation time: 0 hr 43 min 9 sec) 
Heartbeat CPU  0 instructions:  519000001 cycles: 3011553961 heartbeat IPC: 0.47833 cumulative IPC: 0.14433 (Simulation time: 0 hr 43 min 12 sec) 
Heartbeat CPU  0 instructions:  520000000 cycles: 3013645399 heartbeat IPC: 0.47814 cumulative IPC: 0.14457 (Simulation time: 0 hr 43 min 15 sec) 
Heartbeat CPU  0 instructions:  521000002 cycles: 3015406808 heartbeat IPC: 0.56773 cumulative IPC: 0.14482 (Simulation time: 0 hr 43 min 18 sec) 
Heartbeat CPU  0 instructions:  522000001 cycles: 3017430196 heartbeat IPC: 0.49422 cumulative IPC: 0.14507 (Simulation time: 0 hr 43 min 21 sec) 
Heartbeat CPU  0 instructions:  523000001 cycles: 3019565178 heartbeat IPC: 0.46839 cumulative IPC: 0.14530 (Simulation time: 0 hr 43 min 24 sec) 
Heartbeat CPU  0 instructions:  524000000 cycles: 3021783697 heartbeat IPC: 0.45075 cumulative IPC: 0.14554 (Simulation time: 0 hr 43 min 27 sec) 
Heartbeat CPU  0 instructions:  525000001 cycles: 3023920625 heartbeat IPC: 0.46796 cumulative IPC: 0.14577 (Simulation time: 0 hr 43 min 30 sec) 
Heartbeat CPU  0 instructions:  526000000 cycles: 3026137201 heartbeat IPC: 0.45115 cumulative IPC: 0.14601 (Simulation time: 0 hr 43 min 33 sec) 
Heartbeat CPU  0 instructions:  527000001 cycles: 3028402227 heartbeat IPC: 0.44150 cumulative IPC: 0.14623 (Simulation time: 0 hr 43 min 36 sec) 
Heartbeat CPU  0 instructions:  528000000 cycles: 3030780847 heartbeat IPC: 0.42041 cumulative IPC: 0.14646 (Simulation time: 0 hr 43 min 40 sec) 
Heartbeat CPU  0 instructions:  529000000 cycles: 3032892512 heartbeat IPC: 0.47356 cumulative IPC: 0.14669 (Simulation time: 0 hr 43 min 43 sec) 
Heartbeat CPU  0 instructions:  530000000 cycles: 3035089319 heartbeat IPC: 0.45521 cumulative IPC: 0.14693 (Simulation time: 0 hr 43 min 46 sec) 
Heartbeat CPU  0 instructions:  531000001 cycles: 3037358882 heartbeat IPC: 0.44061 cumulative IPC: 0.14715 (Simulation time: 0 hr 43 min 49 sec) 
Heartbeat CPU  0 instructions:  532000000 cycles: 3039786973 heartbeat IPC: 0.41185 cumulative IPC: 0.14737 (Simulation time: 0 hr 43 min 53 sec) 
Heartbeat CPU  0 instructions:  533000000 cycles: 3041672714 heartbeat IPC: 0.53030 cumulative IPC: 0.14762 (Simulation time: 0 hr 43 min 56 sec) 
Heartbeat CPU  0 instructions:  534000000 cycles: 3044344761 heartbeat IPC: 0.37424 cumulative IPC: 0.14782 (Simulation time: 0 hr 43 min 59 sec) 
Heartbeat CPU  0 instructions:  535000002 cycles: 3046047925 heartbeat IPC: 0.58714 cumulative IPC: 0.14808 (Simulation time: 0 hr 44 min 2 sec) 
Heartbeat CPU  0 instructions:  536000000 cycles: 3047983498 heartbeat IPC: 0.51664 cumulative IPC: 0.14832 (Simulation time: 0 hr 44 min 5 sec) 
Heartbeat CPU  0 instructions:  537000000 cycles: 3049973161 heartbeat IPC: 0.50260 cumulative IPC: 0.14856 (Simulation time: 0 hr 44 min 8 sec) 
Heartbeat CPU  0 instructions:  538000000 cycles: 3051905716 heartbeat IPC: 0.51745 cumulative IPC: 0.14880 (Simulation time: 0 hr 44 min 11 sec) 
Heartbeat CPU  0 instructions:  539000000 cycles: 3053902980 heartbeat IPC: 0.50068 cumulative IPC: 0.14904 (Simulation time: 0 hr 44 min 14 sec) 
Heartbeat CPU  0 instructions:  540000000 cycles: 3055588596 heartbeat IPC: 0.59325 cumulative IPC: 0.14930 (Simulation time: 0 hr 44 min 17 sec) 
Heartbeat CPU  0 instructions:  541000003 cycles: 3057974108 heartbeat IPC: 0.41920 cumulative IPC: 0.14951 (Simulation time: 0 hr 44 min 20 sec) 
Heartbeat CPU  0 instructions:  542000001 cycles: 3060211354 heartbeat IPC: 0.44698 cumulative IPC: 0.14974 (Simulation time: 0 hr 44 min 23 sec) 
Heartbeat CPU  0 instructions:  543000000 cycles: 3062372313 heartbeat IPC: 0.46276 cumulative IPC: 0.14997 (Simulation time: 0 hr 44 min 26 sec) 
Heartbeat CPU  0 instructions:  544000000 cycles: 3064364943 heartbeat IPC: 0.50185 cumulative IPC: 0.15021 (Simulation time: 0 hr 44 min 29 sec) 
Heartbeat CPU  0 instructions:  545000000 cycles: 3066517236 heartbeat IPC: 0.46462 cumulative IPC: 0.15044 (Simulation time: 0 hr 44 min 32 sec) 
Heartbeat CPU  0 instructions:  546000003 cycles: 3068782013 heartbeat IPC: 0.44155 cumulative IPC: 0.15066 (Simulation time: 0 hr 44 min 36 sec) 
Heartbeat CPU  0 instructions:  547000000 cycles: 3070772283 heartbeat IPC: 0.50244 cumulative IPC: 0.15089 (Simulation time: 0 hr 44 min 39 sec) 
Heartbeat CPU  0 instructions:  548000000 cycles: 3072809180 heartbeat IPC: 0.49094 cumulative IPC: 0.15113 (Simulation time: 0 hr 44 min 42 sec) 
Heartbeat CPU  0 instructions:  549000000 cycles: 3074903657 heartbeat IPC: 0.47745 cumulative IPC: 0.15136 (Simulation time: 0 hr 44 min 45 sec) 
Heartbeat CPU  0 instructions:  550000000 cycles: 3077291260 heartbeat IPC: 0.41883 cumulative IPC: 0.15157 (Simulation time: 0 hr 44 min 48 sec) 
Heartbeat CPU  0 instructions:  551000003 cycles: 3079404203 heartbeat IPC: 0.47327 cumulative IPC: 0.15180 (Simulation time: 0 hr 44 min 51 sec) 
Heartbeat CPU  0 instructions:  552000000 cycles: 3081395705 heartbeat IPC: 0.50213 cumulative IPC: 0.15204 (Simulation time: 0 hr 44 min 54 sec) 
Heartbeat CPU  0 instructions:  553000000 cycles: 3083449085 heartbeat IPC: 0.48700 cumulative IPC: 0.15227 (Simulation time: 0 hr 44 min 57 sec) 
Heartbeat CPU  0 instructions:  554000002 cycles: 3085631762 heartbeat IPC: 0.45815 cumulative IPC: 0.15249 (Simulation time: 0 hr 45 min 0 sec) 
Heartbeat CPU  0 instructions:  555000002 cycles: 3087876788 heartbeat IPC: 0.44543 cumulative IPC: 0.15271 (Simulation time: 0 hr 45 min 3 sec) 
Heartbeat CPU  0 instructions:  556000000 cycles: 3089820400 heartbeat IPC: 0.51450 cumulative IPC: 0.15295 (Simulation time: 0 hr 45 min 6 sec) 
Heartbeat CPU  0 instructions:  557000001 cycles: 3092010046 heartbeat IPC: 0.45670 cumulative IPC: 0.15317 (Simulation time: 0 hr 45 min 10 sec) 
Heartbeat CPU  0 instructions:  558000003 cycles: 3094076037 heartbeat IPC: 0.48403 cumulative IPC: 0.15340 (Simulation time: 0 hr 45 min 13 sec) 
Heartbeat CPU  0 instructions:  559000002 cycles: 3095836509 heartbeat IPC: 0.56803 cumulative IPC: 0.15365 (Simulation time: 0 hr 45 min 15 sec) 
Heartbeat CPU  0 instructions:  560000000 cycles: 3097922024 heartbeat IPC: 0.47950 cumulative IPC: 0.15387 (Simulation time: 0 hr 45 min 18 sec) 
Heartbeat CPU  0 instructions:  561000003 cycles: 3100066747 heartbeat IPC: 0.46626 cumulative IPC: 0.15410 (Simulation time: 0 hr 45 min 21 sec) 
Heartbeat CPU  0 instructions:  562000001 cycles: 3102120629 heartbeat IPC: 0.48688 cumulative IPC: 0.15432 (Simulation time: 0 hr 45 min 24 sec) 
Heartbeat CPU  0 instructions:  563000001 cycles: 3104199323 heartbeat IPC: 0.48107 cumulative IPC: 0.15455 (Simulation time: 0 hr 45 min 27 sec) 
Heartbeat CPU  0 instructions:  564000000 cycles: 3106334096 heartbeat IPC: 0.46843 cumulative IPC: 0.15478 (Simulation time: 0 hr 45 min 30 sec) 
Heartbeat CPU  0 instructions:  565000002 cycles: 3108408418 heartbeat IPC: 0.48209 cumulative IPC: 0.15500 (Simulation time: 0 hr 45 min 34 sec) 
Heartbeat CPU  0 instructions:  566000003 cycles: 3110662655 heartbeat IPC: 0.44361 cumulative IPC: 0.15522 (Simulation time: 0 hr 45 min 37 sec) 
Heartbeat CPU  0 instructions:  567000000 cycles: 3112702565 heartbeat IPC: 0.49022 cumulative IPC: 0.15545 (Simulation time: 0 hr 45 min 40 sec) 
Heartbeat CPU  0 instructions:  568000000 cycles: 3114745871 heartbeat IPC: 0.48940 cumulative IPC: 0.15567 (Simulation time: 0 hr 45 min 43 sec) 
Heartbeat CPU  0 instructions:  569000000 cycles: 3116849533 heartbeat IPC: 0.47536 cumulative IPC: 0.15590 (Simulation time: 0 hr 45 min 46 sec) 
Heartbeat CPU  0 instructions:  570000001 cycles: 3119175027 heartbeat IPC: 0.43002 cumulative IPC: 0.15611 (Simulation time: 0 hr 45 min 49 sec) 
Heartbeat CPU  0 instructions:  571000000 cycles: 3121113140 heartbeat IPC: 0.51597 cumulative IPC: 0.15634 (Simulation time: 0 hr 45 min 52 sec) 
Heartbeat CPU  0 instructions:  572000000 cycles: 3123285020 heartbeat IPC: 0.46043 cumulative IPC: 0.15656 (Simulation time: 0 hr 45 min 55 sec) 
Heartbeat CPU  0 instructions:  573000001 cycles: 3125290475 heartbeat IPC: 0.49864 cumulative IPC: 0.15679 (Simulation time: 0 hr 45 min 58 sec) 
Heartbeat CPU  0 instructions:  574000000 cycles: 3127363134 heartbeat IPC: 0.48247 cumulative IPC: 0.15701 (Simulation time: 0 hr 46 min 1 sec) 
Heartbeat CPU  0 instructions:  575000003 cycles: 3129476618 heartbeat IPC: 0.47315 cumulative IPC: 0.15723 (Simulation time: 0 hr 46 min 4 sec) 
Heartbeat CPU  0 instructions:  576000000 cycles: 3131563461 heartbeat IPC: 0.47919 cumulative IPC: 0.15745 (Simulation time: 0 hr 46 min 7 sec) 
Heartbeat CPU  0 instructions:  577000000 cycles: 3133359621 heartbeat IPC: 0.55674 cumulative IPC: 0.15769 (Simulation time: 0 hr 46 min 10 sec) 
Heartbeat CPU  0 instructions:  578000002 cycles: 3135380008 heartbeat IPC: 0.49496 cumulative IPC: 0.15791 (Simulation time: 0 hr 46 min 13 sec) 
Heartbeat CPU  0 instructions:  579000003 cycles: 3137469686 heartbeat IPC: 0.47854 cumulative IPC: 0.15814 (Simulation time: 0 hr 46 min 16 sec) 
Heartbeat CPU  0 instructions:  580000000 cycles: 3139453660 heartbeat IPC: 0.50404 cumulative IPC: 0.15836 (Simulation time: 0 hr 46 min 19 sec) 
Heartbeat CPU  0 instructions:  581000001 cycles: 3141226590 heartbeat IPC: 0.56404 cumulative IPC: 0.15860 (Simulation time: 0 hr 46 min 21 sec) 
Heartbeat CPU  0 instructions:  582000000 cycles: 3143212711 heartbeat IPC: 0.50349 cumulative IPC: 0.15883 (Simulation time: 0 hr 46 min 24 sec) 
Heartbeat CPU  0 instructions:  583000000 cycles: 3145299165 heartbeat IPC: 0.47928 cumulative IPC: 0.15905 (Simulation time: 0 hr 46 min 27 sec) 
Heartbeat CPU  0 instructions:  584000000 cycles: 3147497620 heartbeat IPC: 0.45486 cumulative IPC: 0.15926 (Simulation time: 0 hr 46 min 31 sec) 
Heartbeat CPU  0 instructions:  585000001 cycles: 3149540036 heartbeat IPC: 0.48962 cumulative IPC: 0.15948 (Simulation time: 0 hr 46 min 34 sec) 
Heartbeat CPU  0 instructions:  586000001 cycles: 3151547723 heartbeat IPC: 0.49809 cumulative IPC: 0.15970 (Simulation time: 0 hr 46 min 36 sec) 
Heartbeat CPU  0 instructions:  587000001 cycles: 3153886378 heartbeat IPC: 0.42760 cumulative IPC: 0.15991 (Simulation time: 0 hr 46 min 40 sec) 
Heartbeat CPU  0 instructions:  588000000 cycles: 3156156587 heartbeat IPC: 0.44049 cumulative IPC: 0.16012 (Simulation time: 0 hr 46 min 43 sec) 
Heartbeat CPU  0 instructions:  589000002 cycles: 3158624064 heartbeat IPC: 0.40527 cumulative IPC: 0.16032 (Simulation time: 0 hr 46 min 46 sec) 
Heartbeat CPU  0 instructions:  590000001 cycles: 3160449049 heartbeat IPC: 0.54795 cumulative IPC: 0.16055 (Simulation time: 0 hr 46 min 49 sec) 
Heartbeat CPU  0 instructions:  591000001 cycles: 3162506434 heartbeat IPC: 0.48605 cumulative IPC: 0.16077 (Simulation time: 0 hr 46 min 52 sec) 
Heartbeat CPU  0 instructions:  592000000 cycles: 3164611915 heartbeat IPC: 0.47495 cumulative IPC: 0.16099 (Simulation time: 0 hr 46 min 55 sec) 
Heartbeat CPU  0 instructions:  593000000 cycles: 3166650662 heartbeat IPC: 0.49050 cumulative IPC: 0.16121 (Simulation time: 0 hr 46 min 58 sec) 
Heartbeat CPU  0 instructions:  594000003 cycles: 3168696028 heartbeat IPC: 0.48891 cumulative IPC: 0.16142 (Simulation time: 0 hr 47 min 1 sec) 
Heartbeat CPU  0 instructions:  595000000 cycles: 3170594863 heartbeat IPC: 0.52664 cumulative IPC: 0.16165 (Simulation time: 0 hr 47 min 4 sec) 
Heartbeat CPU  0 instructions:  596000000 cycles: 3172487642 heartbeat IPC: 0.52832 cumulative IPC: 0.16188 (Simulation time: 0 hr 47 min 7 sec) 
Heartbeat CPU  0 instructions:  597000001 cycles: 3174543151 heartbeat IPC: 0.48650 cumulative IPC: 0.16209 (Simulation time: 0 hr 47 min 10 sec) 
Heartbeat CPU  0 instructions:  598000001 cycles: 3176506878 heartbeat IPC: 0.50924 cumulative IPC: 0.16232 (Simulation time: 0 hr 47 min 13 sec) 
Heartbeat CPU  0 instructions:  599000003 cycles: 3178304549 heartbeat IPC: 0.55628 cumulative IPC: 0.16255 (Simulation time: 0 hr 47 min 15 sec) 
Heartbeat CPU  0 instructions:  600000000 cycles: 3180300860 heartbeat IPC: 0.50092 cumulative IPC: 0.16277 (Simulation time: 0 hr 47 min 18 sec) 
Finished CPU 0 instructions: 500000000 cycles: 3071866729 cumulative IPC: 0.16277 (Simulation time: 0 hr 47 min 18 sec) 

ChampSim completed all CPUs

[ROI Statistics]
Core_0_instructions 500000000
Core_0_cycles 3071866729
Core_0_IPC 0.16277

Core_0_branch_prediction_accuracy 95.55097
Core_0_branch_MPKI 5.00272
Core_0_average_ROB_occupancy_at_mispredict 120.32613

Core_0_L1D_total_access 238657763
Core_0_L1D_total_hit 201721424
Core_0_L1D_total_miss 36936339
Core_0_L1D_loads 155697992
Core_0_L1D_load_hit 134766091
Core_0_L1D_load_miss 20931901
Core_0_L1D_RFOs 82959771
Core_0_L1D_RFO_hit 66955333
Core_0_L1D_RFO_miss 16004438
Core_0_L1D_prefetches 0
Core_0_L1D_prefetch_hit 0
Core_0_L1D_prefetch_miss 0
Core_0_L1D_writebacks 0
Core_0_L1D_writeback_hit 0
Core_0_L1D_writeback_miss 0
Core_0_L1D_prefetch_requested 0
Core_0_L1D_prefetch_issued 0
Core_0_L1D_prefetch_useful 0
Core_0_L1D_prefetch_useless 0
Core_0_L1D_prefetch_late 0
Core_0_L1D_average_miss_latency 248.49184

Core_0_L1I_total_access 124150011
Core_0_L1I_total_hit 124149785
Core_0_L1I_total_miss 226
Core_0_L1I_loads 124150011
Core_0_L1I_load_hit 124149785
Core_0_L1I_load_miss 226
Core_0_L1I_RFOs 0
Core_0_L1I_RFO_hit 0
Core_0_L1I_RFO_miss 0
Core_0_L1I_prefetches 0
Core_0_L1I_prefetch_hit 0
Core_0_L1I_prefetch_miss 0
Core_0_L1I_writebacks 0
Core_0_L1I_writeback_hit 0
Core_0_L1I_writeback_miss 0
Core_0_L1I_prefetch_requested 0
Core_0_L1I_prefetch_issued 0
Core_0_L1I_prefetch_useful 0
Core_0_L1I_prefetch_useless 0
Core_0_L1I_prefetch_late 0
Core_0_L1I_average_miss_latency 259.96018

Core_0_L2C_total_access 69044468
Core_0_L2C_total_hit 36624109
Core_0_L2C_total_miss 32420359
Core_0_L2C_loads 20931805
Core_0_L2C_load_hit 4304488
Core_0_L2C_load_miss 16627317
Core_0_L2C_RFOs 16004435
Core_0_L2C_RFO_hit 217659
Core_0_L2C_RFO_miss 15786776
Core_0_L2C_prefetches 0
Core_0_L2C_prefetch_hit 0
Core_0_L2C_prefetch_miss 0
Core_0_L2C_writebacks 32108228
Core_0_L2C_writeback_hit 32101962
Core_0_L2C_writeback_miss 6266
Core_0_L2C_prefetch_requested 0
Core_0_L2C_prefetch_issued 0
Core_0_L2C_prefetch_useful 0
Core_0_L2C_prefetch_useless 0
Core_0_L2C_prefetch_late 0
Core_0_L2C_average_miss_latency 254.68240

Core_0_LLC_total_access 61932064
Core_0_LLC_total_hit 12280040
Core_0_LLC_total_miss 49652024
Core_0_LLC_loads 16627108
Core_0_LLC_load_hit 5743012
Core_0_LLC_load_miss 10884096
Core_0_LLC_RFOs 15786752
Core_0_LLC_RFO_hit 494873
Core_0_LLC_RFO_miss 15291879
Core_0_LLC_prefetches 0
Core_0_LLC_prefetch_hit 0
Core_0_LLC_prefetch_miss 0
Core_0_LLC_writebacks 29518204
Core_0_LLC_writeback_hit 6042155
Core_0_LLC_writeback_miss 23476049
Core_0_LLC_prefetch_requested 0
Core_0_LLC_prefetch_issued 0
Core_0_LLC_prefetch_useful 0
Core_0_LLC_prefetch_useless 0
Core_0_LLC_prefetch_late 0
Core_0_LLC_average_miss_latency 139.40828

Core_0_major_page_fault 0
Core_0_minor_page_fault 401483

Channel_0_RQ_row_buffer_hit 929902
Channel_0_RQ_row_buffer_miss 25245214
Channel_0_WQ_row_buffer_hit 6283948
Channel_0_WQ_row_buffer_miss 18196193
Channel_0_WQ_full 0
Channel_0_dbus_congested 26912148

avg_congested_cycle 11
