*************************************************
   ChampSim Multicore Out-of-Order Simulator
   Last compiled: Jan  6 2021 10:48:04
*************************************************

trace_0 traces/482.sphinx3-1100B.champsimtrace.xz
CPU 0 L2C GHB prefetcher
Initialize SHIP state
warmup_instructions 100000000
simulation_instructions 500000000
champsim_seed 260

num_cpus 1
cpu_freq 4000
dram_io_freq 2400
page_size 4096
block_size 64
max_read_per_cycle 8
max_fill_per_cycle 1
dram_channels 1
dram_ranks 1
dram_banks 8
dram_rows 65536
dram_columns 128
dram_row_size 8
dram_size 4096
dram_pages 1048576

fetch_width 6
decode_width 6
exec_width 4
lq_width 2
sq_width 2
retire_width 4
scheduler_size 128
branch_mispredict_penalty 20
rob_size 256
lq_size 72
sq_size 56
num_instr_destinations_sparc 4
num_instr_destinations 2
num_instr_sources 4

itlb_set 16
itlb_way 8
itlb_rq_size 16
itlb_wq_size 16
itlb_pq_size 0
itlb_mshr_size 8
itlb_latency 1

dtlb_set 16
dtlb_way 4
dtlb_rq_size 16
dtlb_wq_size 16
dtlb_pq_size 0
dtlb_mshr_size 8
dtlb_latency 1

stlb_set 128
stlb_way 12
stlb_rq_size 32
stlb_wq_size 32
stlb_pq_size 0
stlb_mshr_size 16
stlb_latency 8

l1i_size 32
l1i_set 64
l1i_way 8
l1i_rq_size 64
l1i_wq_size 64
l1i_pq_size 8
l1i_mshr_size 8
l1i_latency 1

l1d_size 32
l1d_set 64
l1d_way 8
l1d_rq_size 64
l1d_wq_size 64
l1d_pq_size 8
l1d_mshr_size 16
l1d_latency 4

l2c_size 512
l2c_set 1024
l2c_way 8
l2c_rq_size 32
l2c_wq_size 32
l2c_pq_size 16
l2c_mshr_size 32
l2c_latency 10

llc_size 2048
llc_set 2048
llc_way 16
llc_rq_size 32
llc_wq_size 32
llc_pq_size 32
llc_mshr_size 64
llc_latency 20

dram_channel_width 8
dram_wq_size 64
dram_rq_size 64
tRP 15
tRCD 15
tCAS 12.5
dram_dbus_turn_around_time 30
dram_write_high_wm 56
dram_write_low_wm 48
min_dram_writes_per_switch 16
dram_mtps 2400
dram_dbus_return_time 13


Heartbeat CPU  0 instructions:    1000001 cycles:     367574 heartbeat IPC: 2.72054 cumulative IPC: 2.72054 (Simulation time: 0 hr 0 min 1 sec) 
Heartbeat CPU  0 instructions:    2000003 cycles:     795089 heartbeat IPC: 2.33910 cumulative IPC: 2.51545 (Simulation time: 0 hr 0 min 3 sec) 
Heartbeat CPU  0 instructions:    3000001 cycles:    1253039 heartbeat IPC: 2.18364 cumulative IPC: 2.39418 (Simulation time: 0 hr 0 min 5 sec) 
Heartbeat CPU  0 instructions:    4000000 cycles:    1735804 heartbeat IPC: 2.07140 cumulative IPC: 2.30441 (Simulation time: 0 hr 0 min 6 sec) 
Heartbeat CPU  0 instructions:    5000000 cycles:    2178370 heartbeat IPC: 2.25955 cumulative IPC: 2.29529 (Simulation time: 0 hr 0 min 8 sec) 
Heartbeat CPU  0 instructions:    6000001 cycles:    2545502 heartbeat IPC: 2.72382 cumulative IPC: 2.35710 (Simulation time: 0 hr 0 min 10 sec) 
Heartbeat CPU  0 instructions:    7000000 cycles:    2936509 heartbeat IPC: 2.55750 cumulative IPC: 2.38378 (Simulation time: 0 hr 0 min 11 sec) 
Heartbeat CPU  0 instructions:    8000000 cycles:    3395111 heartbeat IPC: 2.18054 cumulative IPC: 2.35633 (Simulation time: 0 hr 0 min 13 sec) 
Heartbeat CPU  0 instructions:    9000000 cycles:    3852968 heartbeat IPC: 2.18409 cumulative IPC: 2.33586 (Simulation time: 0 hr 0 min 14 sec) 
Heartbeat CPU  0 instructions:   10000000 cycles:    4343039 heartbeat IPC: 2.04052 cumulative IPC: 2.30254 (Simulation time: 0 hr 0 min 16 sec) 
Heartbeat CPU  0 instructions:   11000001 cycles:    4715243 heartbeat IPC: 2.68670 cumulative IPC: 2.33286 (Simulation time: 0 hr 0 min 17 sec) 
Heartbeat CPU  0 instructions:   12000000 cycles:    5082319 heartbeat IPC: 2.72423 cumulative IPC: 2.36113 (Simulation time: 0 hr 0 min 19 sec) 
Heartbeat CPU  0 instructions:   13000001 cycles:    5531582 heartbeat IPC: 2.22587 cumulative IPC: 2.35014 (Simulation time: 0 hr 0 min 21 sec) 
Heartbeat CPU  0 instructions:   14000000 cycles:    5989471 heartbeat IPC: 2.18393 cumulative IPC: 2.33744 (Simulation time: 0 hr 0 min 22 sec) 
Heartbeat CPU  0 instructions:   15000000 cycles:    6471772 heartbeat IPC: 2.07339 cumulative IPC: 2.31776 (Simulation time: 0 hr 0 min 24 sec) 
Heartbeat CPU  0 instructions:   16000000 cycles:    6881621 heartbeat IPC: 2.43992 cumulative IPC: 2.32503 (Simulation time: 0 hr 0 min 25 sec) 
Heartbeat CPU  0 instructions:   17000003 cycles:    7248682 heartbeat IPC: 2.72435 cumulative IPC: 2.34525 (Simulation time: 0 hr 0 min 27 sec) 
Heartbeat CPU  0 instructions:   18000003 cycles:    7660721 heartbeat IPC: 2.42695 cumulative IPC: 2.34965 (Simulation time: 0 hr 0 min 29 sec) 
Heartbeat CPU  0 instructions:   19000003 cycles:    8118700 heartbeat IPC: 2.18351 cumulative IPC: 2.34028 (Simulation time: 0 hr 0 min 30 sec) 
Heartbeat CPU  0 instructions:   20000000 cycles:    8586982 heartbeat IPC: 2.13546 cumulative IPC: 2.32911 (Simulation time: 0 hr 0 min 32 sec) 
Heartbeat CPU  0 instructions:   21000002 cycles:    9045836 heartbeat IPC: 2.17935 cumulative IPC: 2.32151 (Simulation time: 0 hr 0 min 33 sec) 
Heartbeat CPU  0 instructions:   22000003 cycles:    9412885 heartbeat IPC: 2.72443 cumulative IPC: 2.33722 (Simulation time: 0 hr 0 min 35 sec) 
Heartbeat CPU  0 instructions:   23000001 cycles:    9793523 heartbeat IPC: 2.62716 cumulative IPC: 2.34849 (Simulation time: 0 hr 0 min 37 sec) 
Heartbeat CPU  0 instructions:   24000000 cycles:   10248934 heartbeat IPC: 2.19582 cumulative IPC: 2.34171 (Simulation time: 0 hr 0 min 38 sec) 
Heartbeat CPU  0 instructions:   25000002 cycles:   10704343 heartbeat IPC: 2.19583 cumulative IPC: 2.33550 (Simulation time: 0 hr 0 min 40 sec) 
Heartbeat CPU  0 instructions:   26000002 cycles:   11183003 heartbeat IPC: 2.08917 cumulative IPC: 2.32496 (Simulation time: 0 hr 0 min 41 sec) 
Heartbeat CPU  0 instructions:   27000001 cycles:   11576016 heartbeat IPC: 2.54444 cumulative IPC: 2.33241 (Simulation time: 0 hr 0 min 43 sec) 
Heartbeat CPU  0 instructions:   28000000 cycles:   11942920 heartbeat IPC: 2.72551 cumulative IPC: 2.34449 (Simulation time: 0 hr 0 min 45 sec) 
Heartbeat CPU  0 instructions:   29000001 cycles:   12379380 heartbeat IPC: 2.29116 cumulative IPC: 2.34261 (Simulation time: 0 hr 0 min 46 sec) 
Heartbeat CPU  0 instructions:   30000003 cycles:   12832969 heartbeat IPC: 2.20464 cumulative IPC: 2.33773 (Simulation time: 0 hr 0 min 48 sec) 
Heartbeat CPU  0 instructions:   31000002 cycles:   13286957 heartbeat IPC: 2.20270 cumulative IPC: 2.33312 (Simulation time: 0 hr 0 min 50 sec) 
Heartbeat CPU  0 instructions:   32000000 cycles:   13770090 heartbeat IPC: 2.06982 cumulative IPC: 2.32388 (Simulation time: 0 hr 0 min 51 sec) 
Heartbeat CPU  0 instructions:   33000003 cycles:   14171171 heartbeat IPC: 2.49327 cumulative IPC: 2.32867 (Simulation time: 0 hr 0 min 53 sec) 
Heartbeat CPU  0 instructions:   34000003 cycles:   14538156 heartbeat IPC: 2.72491 cumulative IPC: 2.33867 (Simulation time: 0 hr 0 min 54 sec) 
Heartbeat CPU  0 instructions:   35000000 cycles:   14965391 heartbeat IPC: 2.34063 cumulative IPC: 2.33873 (Simulation time: 0 hr 0 min 56 sec) 
Heartbeat CPU  0 instructions:   36000000 cycles:   15419206 heartbeat IPC: 2.20354 cumulative IPC: 2.33475 (Simulation time: 0 hr 0 min 58 sec) 
Heartbeat CPU  0 instructions:   37000000 cycles:   15873131 heartbeat IPC: 2.20301 cumulative IPC: 2.33098 (Simulation time: 0 hr 0 min 59 sec) 
Heartbeat CPU  0 instructions:   38000003 cycles:   16360850 heartbeat IPC: 2.05037 cumulative IPC: 2.32262 (Simulation time: 0 hr 1 min 1 sec) 
Heartbeat CPU  0 instructions:   39000001 cycles:   16768199 heartbeat IPC: 2.45489 cumulative IPC: 2.32583 (Simulation time: 0 hr 1 min 2 sec) 
Heartbeat CPU  0 instructions:   40000000 cycles:   17135232 heartbeat IPC: 2.72455 cumulative IPC: 2.33437 (Simulation time: 0 hr 1 min 4 sec) 
Heartbeat CPU  0 instructions:   41000003 cycles:   17555479 heartbeat IPC: 2.37956 cumulative IPC: 2.33545 (Simulation time: 0 hr 1 min 6 sec) 
Heartbeat CPU  0 instructions:   42000000 cycles:   18013478 heartbeat IPC: 2.18340 cumulative IPC: 2.33159 (Simulation time: 0 hr 1 min 7 sec) 
Heartbeat CPU  0 instructions:   43000001 cycles:   18469762 heartbeat IPC: 2.19162 cumulative IPC: 2.32813 (Simulation time: 0 hr 1 min 9 sec) 
Heartbeat CPU  0 instructions:   44000000 cycles:   18959957 heartbeat IPC: 2.04000 cumulative IPC: 2.32068 (Simulation time: 0 hr 1 min 10 sec) 
Heartbeat CPU  0 instructions:   45000002 cycles:   19372019 heartbeat IPC: 2.42682 cumulative IPC: 2.32294 (Simulation time: 0 hr 1 min 12 sec) 
Heartbeat CPU  0 instructions:   46000000 cycles:   19739084 heartbeat IPC: 2.72431 cumulative IPC: 2.33040 (Simulation time: 0 hr 1 min 14 sec) 
Heartbeat CPU  0 instructions:   47000002 cycles:   20152255 heartbeat IPC: 2.42031 cumulative IPC: 2.33225 (Simulation time: 0 hr 1 min 16 sec) 
Heartbeat CPU  0 instructions:   48000000 cycles:   20611969 heartbeat IPC: 2.17526 cumulative IPC: 2.32874 (Simulation time: 0 hr 1 min 17 sec) 
Heartbeat CPU  0 instructions:   49000003 cycles:   21068609 heartbeat IPC: 2.18992 cumulative IPC: 2.32574 (Simulation time: 0 hr 1 min 19 sec) 
Heartbeat CPU  0 instructions:   50000003 cycles:   21579275 heartbeat IPC: 1.95823 cumulative IPC: 2.31704 (Simulation time: 0 hr 1 min 20 sec) 
Heartbeat CPU  0 instructions:   51000002 cycles:   22041390 heartbeat IPC: 2.16396 cumulative IPC: 2.31383 (Simulation time: 0 hr 1 min 22 sec) 
Heartbeat CPU  0 instructions:   52000000 cycles:   22414488 heartbeat IPC: 2.68026 cumulative IPC: 2.31993 (Simulation time: 0 hr 1 min 24 sec) 
Heartbeat CPU  0 instructions:   53000001 cycles:   22781632 heartbeat IPC: 2.72373 cumulative IPC: 2.32644 (Simulation time: 0 hr 1 min 25 sec) 
Heartbeat CPU  0 instructions:   54000001 cycles:   23231361 heartbeat IPC: 2.22356 cumulative IPC: 2.32444 (Simulation time: 0 hr 1 min 27 sec) 
Heartbeat CPU  0 instructions:   55000001 cycles:   23684885 heartbeat IPC: 2.20495 cumulative IPC: 2.32216 (Simulation time: 0 hr 1 min 29 sec) 
Heartbeat CPU  0 instructions:   56000000 cycles:   24141848 heartbeat IPC: 2.18836 cumulative IPC: 2.31962 (Simulation time: 0 hr 1 min 30 sec) 
Heartbeat CPU  0 instructions:   57000003 cycles:   24627107 heartbeat IPC: 2.06076 cumulative IPC: 2.31452 (Simulation time: 0 hr 1 min 32 sec) 
Heartbeat CPU  0 instructions:   58000001 cycles:   25020458 heartbeat IPC: 2.54225 cumulative IPC: 2.31810 (Simulation time: 0 hr 1 min 34 sec) 
Heartbeat CPU  0 instructions:   59000001 cycles:   25387487 heartbeat IPC: 2.72458 cumulative IPC: 2.32398 (Simulation time: 0 hr 1 min 35 sec) 
Heartbeat CPU  0 instructions:   60000000 cycles:   25827004 heartbeat IPC: 2.27522 cumulative IPC: 2.32315 (Simulation time: 0 hr 1 min 37 sec) 
Heartbeat CPU  0 instructions:   61000000 cycles:   26282937 heartbeat IPC: 2.19330 cumulative IPC: 2.32090 (Simulation time: 0 hr 1 min 39 sec) 
Heartbeat CPU  0 instructions:   62000000 cycles:   26740447 heartbeat IPC: 2.18574 cumulative IPC: 2.31858 (Simulation time: 0 hr 1 min 40 sec) 
Heartbeat CPU  0 instructions:   63000000 cycles:   27227734 heartbeat IPC: 2.05218 cumulative IPC: 2.31382 (Simulation time: 0 hr 1 min 42 sec) 
Heartbeat CPU  0 instructions:   64000000 cycles:   27629628 heartbeat IPC: 2.48822 cumulative IPC: 2.31635 (Simulation time: 0 hr 1 min 43 sec) 
Heartbeat CPU  0 instructions:   65000000 cycles:   27996753 heartbeat IPC: 2.72387 cumulative IPC: 2.32170 (Simulation time: 0 hr 1 min 45 sec) 
Heartbeat CPU  0 instructions:   66000001 cycles:   28422087 heartbeat IPC: 2.35110 cumulative IPC: 2.32214 (Simulation time: 0 hr 1 min 47 sec) 
Heartbeat CPU  0 instructions:   67000003 cycles:   28881802 heartbeat IPC: 2.17527 cumulative IPC: 2.31980 (Simulation time: 0 hr 1 min 48 sec) 
Heartbeat CPU  0 instructions:   68000000 cycles:   29335860 heartbeat IPC: 2.20236 cumulative IPC: 2.31798 (Simulation time: 0 hr 1 min 50 sec) 
Heartbeat CPU  0 instructions:   69000001 cycles:   29822809 heartbeat IPC: 2.05361 cumulative IPC: 2.31367 (Simulation time: 0 hr 1 min 52 sec) 
Heartbeat CPU  0 instructions:   70000001 cycles:   30231894 heartbeat IPC: 2.44448 cumulative IPC: 2.31544 (Simulation time: 0 hr 1 min 53 sec) 
Heartbeat CPU  0 instructions:   71000001 cycles:   30599077 heartbeat IPC: 2.72344 cumulative IPC: 2.32033 (Simulation time: 0 hr 1 min 55 sec) 
Heartbeat CPU  0 instructions:   72000000 cycles:   31014780 heartbeat IPC: 2.40556 cumulative IPC: 2.32147 (Simulation time: 0 hr 1 min 57 sec) 
Heartbeat CPU  0 instructions:   73000000 cycles:   31471687 heartbeat IPC: 2.18863 cumulative IPC: 2.31955 (Simulation time: 0 hr 1 min 58 sec) 
Heartbeat CPU  0 instructions:   74000002 cycles:   31927110 heartbeat IPC: 2.19577 cumulative IPC: 2.31778 (Simulation time: 0 hr 2 min 0 sec) 
Heartbeat CPU  0 instructions:   75000002 cycles:   32415632 heartbeat IPC: 2.04699 cumulative IPC: 2.31370 (Simulation time: 0 hr 2 min 2 sec) 
Heartbeat CPU  0 instructions:   76000000 cycles:   32834236 heartbeat IPC: 2.38889 cumulative IPC: 2.31466 (Simulation time: 0 hr 2 min 3 sec) 
Heartbeat CPU  0 instructions:   77000003 cycles:   33201404 heartbeat IPC: 2.72356 cumulative IPC: 2.31918 (Simulation time: 0 hr 2 min 5 sec) 
Heartbeat CPU  0 instructions:   78000002 cycles:   33609648 heartbeat IPC: 2.44951 cumulative IPC: 2.32076 (Simulation time: 0 hr 2 min 7 sec) 
Heartbeat CPU  0 instructions:   79000000 cycles:   34065093 heartbeat IPC: 2.19565 cumulative IPC: 2.31909 (Simulation time: 0 hr 2 min 8 sec) 
Heartbeat CPU  0 instructions:   80000000 cycles:   34522178 heartbeat IPC: 2.18778 cumulative IPC: 2.31735 (Simulation time: 0 hr 2 min 10 sec) 
Heartbeat CPU  0 instructions:   81000001 cycles:   34981176 heartbeat IPC: 2.17866 cumulative IPC: 2.31553 (Simulation time: 0 hr 2 min 11 sec) 
Heartbeat CPU  0 instructions:   82000001 cycles:   35467906 heartbeat IPC: 2.05453 cumulative IPC: 2.31195 (Simulation time: 0 hr 2 min 13 sec) 
Heartbeat CPU  0 instructions:   83000001 cycles:   35839367 heartbeat IPC: 2.69207 cumulative IPC: 2.31589 (Simulation time: 0 hr 2 min 15 sec) 
Heartbeat CPU  0 instructions:   84000000 cycles:   36207382 heartbeat IPC: 2.71728 cumulative IPC: 2.31997 (Simulation time: 0 hr 2 min 17 sec) 
Heartbeat CPU  0 instructions:   85000003 cycles:   36663177 heartbeat IPC: 2.19398 cumulative IPC: 2.31840 (Simulation time: 0 hr 2 min 18 sec) 
Heartbeat CPU  0 instructions:   86000001 cycles:   37118755 heartbeat IPC: 2.19501 cumulative IPC: 2.31689 (Simulation time: 0 hr 2 min 20 sec) 
Heartbeat CPU  0 instructions:   87000003 cycles:   37576027 heartbeat IPC: 2.18689 cumulative IPC: 2.31531 (Simulation time: 0 hr 2 min 21 sec) 
Heartbeat CPU  0 instructions:   88000000 cycles:   38065631 heartbeat IPC: 2.04246 cumulative IPC: 2.31180 (Simulation time: 0 hr 2 min 23 sec) 
Heartbeat CPU  0 instructions:   89000002 cycles:   38468858 heartbeat IPC: 2.48000 cumulative IPC: 2.31356 (Simulation time: 0 hr 2 min 25 sec) 
Heartbeat CPU  0 instructions:   90000002 cycles:   38836000 heartbeat IPC: 2.72374 cumulative IPC: 2.31744 (Simulation time: 0 hr 2 min 26 sec) 
Heartbeat CPU  0 instructions:   91000002 cycles:   39257065 heartbeat IPC: 2.37493 cumulative IPC: 2.31805 (Simulation time: 0 hr 2 min 28 sec) 
Heartbeat CPU  0 instructions:   92000000 cycles:   39710684 heartbeat IPC: 2.20449 cumulative IPC: 2.31676 (Simulation time: 0 hr 2 min 30 sec) 
Heartbeat CPU  0 instructions:   93000002 cycles:   40167348 heartbeat IPC: 2.18980 cumulative IPC: 2.31531 (Simulation time: 0 hr 2 min 31 sec) 
Heartbeat CPU  0 instructions:   94000001 cycles:   40655712 heartbeat IPC: 2.04765 cumulative IPC: 2.31210 (Simulation time: 0 hr 2 min 33 sec) 
Heartbeat CPU  0 instructions:   95000003 cycles:   41028099 heartbeat IPC: 2.68538 cumulative IPC: 2.31549 (Simulation time: 0 hr 2 min 35 sec) 
Heartbeat CPU  0 instructions:   96000000 cycles:   41395161 heartbeat IPC: 2.72433 cumulative IPC: 2.31911 (Simulation time: 0 hr 2 min 36 sec) 
Heartbeat CPU  0 instructions:   97000001 cycles:   41841272 heartbeat IPC: 2.24160 cumulative IPC: 2.31829 (Simulation time: 0 hr 2 min 38 sec) 
Heartbeat CPU  0 instructions:   98000002 cycles:   42297812 heartbeat IPC: 2.19039 cumulative IPC: 2.31690 (Simulation time: 0 hr 2 min 40 sec) 
Heartbeat CPU  0 instructions:   99000003 cycles:   42783969 heartbeat IPC: 2.05695 cumulative IPC: 2.31395 (Simulation time: 0 hr 2 min 41 sec) 
Heartbeat CPU  0 instructions:  100000000 cycles:   43328146 heartbeat IPC: 1.83763 cumulative IPC: 2.30797 (Simulation time: 0 hr 2 min 43 sec) 

Warmup complete CPU  0 instructions:  100000001 cycles:   43328147 (Simulation time: 0 hr 2 min 43 sec) 

Heartbeat CPU  0 instructions:  101000001 cycles:   44184529 heartbeat IPC: 1.16770 cumulative IPC: 1.16770 (Simulation time: 0 hr 2 min 45 sec) 
Heartbeat CPU  0 instructions:  102000003 cycles:   44855685 heartbeat IPC: 1.48997 cumulative IPC: 1.30930 (Simulation time: 0 hr 2 min 47 sec) 
Heartbeat CPU  0 instructions:  103000000 cycles:   45703338 heartbeat IPC: 1.17972 cumulative IPC: 1.26306 (Simulation time: 0 hr 2 min 49 sec) 
Heartbeat CPU  0 instructions:  104000000 cycles:   46894117 heartbeat IPC: 0.83979 cumulative IPC: 1.12171 (Simulation time: 0 hr 2 min 52 sec) 
Heartbeat CPU  0 instructions:  105000000 cycles:   47950576 heartbeat IPC: 0.94656 cumulative IPC: 1.08168 (Simulation time: 0 hr 2 min 54 sec) 
Heartbeat CPU  0 instructions:  106000003 cycles:   48676183 heartbeat IPC: 1.37816 cumulative IPC: 1.12191 (Simulation time: 0 hr 2 min 56 sec) 
Heartbeat CPU  0 instructions:  107000003 cycles:   49329990 heartbeat IPC: 1.52950 cumulative IPC: 1.16631 (Simulation time: 0 hr 2 min 58 sec) 
Heartbeat CPU  0 instructions:  108000000 cycles:   50446640 heartbeat IPC: 0.89553 cumulative IPC: 1.12383 (Simulation time: 0 hr 3 min 0 sec) 
Heartbeat CPU  0 instructions:  109000000 cycles:   51604347 heartbeat IPC: 0.86378 cumulative IPC: 1.08746 (Simulation time: 0 hr 3 min 2 sec) 
Heartbeat CPU  0 instructions:  110000001 cycles:   52432941 heartbeat IPC: 1.20686 cumulative IPC: 1.09832 (Simulation time: 0 hr 3 min 4 sec) 
Heartbeat CPU  0 instructions:  111000000 cycles:   53110573 heartbeat IPC: 1.47573 cumulative IPC: 1.12447 (Simulation time: 0 hr 3 min 7 sec) 
Heartbeat CPU  0 instructions:  112000000 cycles:   53967263 heartbeat IPC: 1.16728 cumulative IPC: 1.12791 (Simulation time: 0 hr 3 min 9 sec) 
Heartbeat CPU  0 instructions:  113000003 cycles:   55121467 heartbeat IPC: 0.86640 cumulative IPC: 1.10232 (Simulation time: 0 hr 3 min 11 sec) 
Heartbeat CPU  0 instructions:  114000001 cycles:   56151674 heartbeat IPC: 0.97068 cumulative IPC: 1.09174 (Simulation time: 0 hr 3 min 13 sec) 
Heartbeat CPU  0 instructions:  115000000 cycles:   57080754 heartbeat IPC: 1.07633 cumulative IPC: 1.09070 (Simulation time: 0 hr 3 min 15 sec) 
Heartbeat CPU  0 instructions:  116000000 cycles:   57750569 heartbeat IPC: 1.49295 cumulative IPC: 1.10938 (Simulation time: 0 hr 3 min 17 sec) 
Heartbeat CPU  0 instructions:  117000000 cycles:   58909860 heartbeat IPC: 0.86260 cumulative IPC: 1.09102 (Simulation time: 0 hr 3 min 20 sec) 
Heartbeat CPU  0 instructions:  118000003 cycles:   60094774 heartbeat IPC: 0.84395 cumulative IPC: 1.07356 (Simulation time: 0 hr 3 min 22 sec) 
Heartbeat CPU  0 instructions:  119000002 cycles:   61312813 heartbeat IPC: 0.82099 cumulative IPC: 1.05646 (Simulation time: 0 hr 3 min 24 sec) 
Heartbeat CPU  0 instructions:  120000000 cycles:   62637385 heartbeat IPC: 0.75496 cumulative IPC: 1.03577 (Simulation time: 0 hr 3 min 26 sec) 
Heartbeat CPU  0 instructions:  121000000 cycles:   63494843 heartbeat IPC: 1.16624 cumulative IPC: 1.04132 (Simulation time: 0 hr 3 min 28 sec) 
Heartbeat CPU  0 instructions:  122000001 cycles:   64160740 heartbeat IPC: 1.50174 cumulative IPC: 1.05604 (Simulation time: 0 hr 3 min 30 sec) 
Heartbeat CPU  0 instructions:  123000001 cycles:   65024404 heartbeat IPC: 1.15786 cumulative IPC: 1.06009 (Simulation time: 0 hr 3 min 33 sec) 
Heartbeat CPU  0 instructions:  124000000 cycles:   66287025 heartbeat IPC: 0.79200 cumulative IPC: 1.04535 (Simulation time: 0 hr 3 min 35 sec) 
Heartbeat CPU  0 instructions:  125000001 cycles:   67484467 heartbeat IPC: 0.83511 cumulative IPC: 1.03493 (Simulation time: 0 hr 3 min 37 sec) 
Heartbeat CPU  0 instructions:  126000003 cycles:   68729304 heartbeat IPC: 0.80332 cumulative IPC: 1.02358 (Simulation time: 0 hr 3 min 39 sec) 
Heartbeat CPU  0 instructions:  127000000 cycles:   69719582 heartbeat IPC: 1.00981 cumulative IPC: 1.02306 (Simulation time: 0 hr 3 min 41 sec) 
Heartbeat CPU  0 instructions:  128000000 cycles:   70425687 heartbeat IPC: 1.41622 cumulative IPC: 1.03330 (Simulation time: 0 hr 3 min 43 sec) 
Heartbeat CPU  0 instructions:  129000000 cycles:   71130624 heartbeat IPC: 1.41857 cumulative IPC: 1.04307 (Simulation time: 0 hr 3 min 46 sec) 
Heartbeat CPU  0 instructions:  130000000 cycles:   72404854 heartbeat IPC: 0.78479 cumulative IPC: 1.03175 (Simulation time: 0 hr 3 min 48 sec) 
Heartbeat CPU  0 instructions:  131000002 cycles:   73594887 heartbeat IPC: 0.84031 cumulative IPC: 1.02423 (Simulation time: 0 hr 3 min 50 sec) 
Heartbeat CPU  0 instructions:  132000000 cycles:   74811356 heartbeat IPC: 0.82205 cumulative IPC: 1.01641 (Simulation time: 0 hr 3 min 52 sec) 
Heartbeat CPU  0 instructions:  133000002 cycles:   75613796 heartbeat IPC: 1.24620 cumulative IPC: 1.02213 (Simulation time: 0 hr 3 min 54 sec) 
Heartbeat CPU  0 instructions:  134000002 cycles:   76298530 heartbeat IPC: 1.46042 cumulative IPC: 1.03123 (Simulation time: 0 hr 3 min 56 sec) 
Heartbeat CPU  0 instructions:  135000001 cycles:   77263191 heartbeat IPC: 1.03663 cumulative IPC: 1.03138 (Simulation time: 0 hr 3 min 59 sec) 
Heartbeat CPU  0 instructions:  136000000 cycles:   78451878 heartbeat IPC: 0.84126 cumulative IPC: 1.02495 (Simulation time: 0 hr 4 min 1 sec) 
Heartbeat CPU  0 instructions:  137000002 cycles:   79589447 heartbeat IPC: 0.87907 cumulative IPC: 1.02037 (Simulation time: 0 hr 4 min 3 sec) 
Heartbeat CPU  0 instructions:  138000002 cycles:   80370780 heartbeat IPC: 1.27986 cumulative IPC: 1.02585 (Simulation time: 0 hr 4 min 5 sec) 
Heartbeat CPU  0 instructions:  139000002 cycles:   81048141 heartbeat IPC: 1.47632 cumulative IPC: 1.03393 (Simulation time: 0 hr 4 min 7 sec) 
Heartbeat CPU  0 instructions:  140000000 cycles:   82078099 heartbeat IPC: 0.97091 cumulative IPC: 1.03226 (Simulation time: 0 hr 4 min 9 sec) 
Heartbeat CPU  0 instructions:  141000000 cycles:   83248701 heartbeat IPC: 0.85426 cumulative IPC: 1.02704 (Simulation time: 0 hr 4 min 12 sec) 
Heartbeat CPU  0 instructions:  142000001 cycles:   84306287 heartbeat IPC: 0.94555 cumulative IPC: 1.02494 (Simulation time: 0 hr 4 min 14 sec) 
Heartbeat CPU  0 instructions:  143000003 cycles:   85031508 heartbeat IPC: 1.37889 cumulative IPC: 1.03109 (Simulation time: 0 hr 4 min 16 sec) 
Heartbeat CPU  0 instructions:  144000000 cycles:   85694486 heartbeat IPC: 1.50834 cumulative IPC: 1.03856 (Simulation time: 0 hr 4 min 18 sec) 
Heartbeat CPU  0 instructions:  145000002 cycles:   86848804 heartbeat IPC: 0.86631 cumulative IPC: 1.03399 (Simulation time: 0 hr 4 min 20 sec) 
Heartbeat CPU  0 instructions:  146000002 cycles:   88038199 heartbeat IPC: 0.84076 cumulative IPC: 1.02885 (Simulation time: 0 hr 4 min 22 sec) 
Heartbeat CPU  0 instructions:  147000002 cycles:   88931988 heartbeat IPC: 1.11883 cumulative IPC: 1.03061 (Simulation time: 0 hr 4 min 24 sec) 
Heartbeat CPU  0 instructions:  148000000 cycles:   89594658 heartbeat IPC: 1.50904 cumulative IPC: 1.03747 (Simulation time: 0 hr 4 min 27 sec) 
Heartbeat CPU  0 instructions:  149000000 cycles:   90371443 heartbeat IPC: 1.28736 cumulative IPC: 1.04159 (Simulation time: 0 hr 4 min 29 sec) 
Heartbeat CPU  0 instructions:  150000003 cycles:   91574150 heartbeat IPC: 0.83146 cumulative IPC: 1.03636 (Simulation time: 0 hr 4 min 31 sec) 
Heartbeat CPU  0 instructions:  151000002 cycles:   92760504 heartbeat IPC: 0.84292 cumulative IPC: 1.03171 (Simulation time: 0 hr 4 min 33 sec) 
Heartbeat CPU  0 instructions:  152000000 cycles:   93663971 heartbeat IPC: 1.10685 cumulative IPC: 1.03306 (Simulation time: 0 hr 4 min 35 sec) 
Heartbeat CPU  0 instructions:  153000001 cycles:   94433033 heartbeat IPC: 1.30029 cumulative IPC: 1.03708 (Simulation time: 0 hr 4 min 37 sec) 
Heartbeat CPU  0 instructions:  154000003 cycles:   95114596 heartbeat IPC: 1.46722 cumulative IPC: 1.04274 (Simulation time: 0 hr 4 min 40 sec) 
Heartbeat CPU  0 instructions:  155000003 cycles:   96075630 heartbeat IPC: 1.04055 cumulative IPC: 1.04270 (Simulation time: 0 hr 4 min 42 sec) 
Heartbeat CPU  0 instructions:  156000000 cycles:   97242153 heartbeat IPC: 0.85725 cumulative IPC: 1.03869 (Simulation time: 0 hr 4 min 44 sec) 
Heartbeat CPU  0 instructions:  157000003 cycles:   98248585 heartbeat IPC: 0.99361 cumulative IPC: 1.03787 (Simulation time: 0 hr 4 min 46 sec) 
Heartbeat CPU  0 instructions:  158000003 cycles:   98957949 heartbeat IPC: 1.40971 cumulative IPC: 1.04261 (Simulation time: 0 hr 4 min 48 sec) 
Heartbeat CPU  0 instructions:  159000000 cycles:   99617042 heartbeat IPC: 1.51723 cumulative IPC: 1.04816 (Simulation time: 0 hr 4 min 50 sec) 
Heartbeat CPU  0 instructions:  160000000 cycles:  100837145 heartbeat IPC: 0.81960 cumulative IPC: 1.04331 (Simulation time: 0 hr 4 min 53 sec) 
Heartbeat CPU  0 instructions:  161000000 cycles:  101972672 heartbeat IPC: 0.88065 cumulative IPC: 1.04017 (Simulation time: 0 hr 4 min 55 sec) 
Heartbeat CPU  0 instructions:  162000003 cycles:  102755069 heartbeat IPC: 1.27813 cumulative IPC: 1.04330 (Simulation time: 0 hr 4 min 57 sec) 
Heartbeat CPU  0 instructions:  163000002 cycles:  103422262 heartbeat IPC: 1.49882 cumulative IPC: 1.04836 (Simulation time: 0 hr 4 min 59 sec) 
Heartbeat CPU  0 instructions:  164000000 cycles:  104357146 heartbeat IPC: 1.06965 cumulative IPC: 1.04868 (Simulation time: 0 hr 5 min 1 sec) 
Heartbeat CPU  0 instructions:  165000000 cycles:  105517264 heartbeat IPC: 0.86198 cumulative IPC: 1.04520 (Simulation time: 0 hr 5 min 3 sec) 
Heartbeat CPU  0 instructions:  166000002 cycles:  106522947 heartbeat IPC: 0.99435 cumulative IPC: 1.04439 (Simulation time: 0 hr 5 min 5 sec) 
Heartbeat CPU  0 instructions:  167000001 cycles:  107230684 heartbeat IPC: 1.41295 cumulative IPC: 1.04847 (Simulation time: 0 hr 5 min 8 sec) 
Heartbeat CPU  0 instructions:  168000000 cycles:  107888973 heartbeat IPC: 1.51909 cumulative IPC: 1.05327 (Simulation time: 0 hr 5 min 10 sec) 
Heartbeat CPU  0 instructions:  169000000 cycles:  109095420 heartbeat IPC: 0.82888 cumulative IPC: 1.04915 (Simulation time: 0 hr 5 min 12 sec) 
Heartbeat CPU  0 instructions:  170000002 cycles:  110240327 heartbeat IPC: 0.87344 cumulative IPC: 1.04615 (Simulation time: 0 hr 5 min 14 sec) 
Heartbeat CPU  0 instructions:  171000003 cycles:  111031208 heartbeat IPC: 1.26441 cumulative IPC: 1.04870 (Simulation time: 0 hr 5 min 16 sec) 
Heartbeat CPU  0 instructions:  172000000 cycles:  111710845 heartbeat IPC: 1.47137 cumulative IPC: 1.05290 (Simulation time: 0 hr 5 min 18 sec) 
Heartbeat CPU  0 instructions:  173000000 cycles:  112641505 heartbeat IPC: 1.07451 cumulative IPC: 1.05319 (Simulation time: 0 hr 5 min 20 sec) 
Heartbeat CPU  0 instructions:  174000000 cycles:  113809639 heartbeat IPC: 0.85607 cumulative IPC: 1.04992 (Simulation time: 0 hr 5 min 23 sec) 
Heartbeat CPU  0 instructions:  175000002 cycles:  114819883 heartbeat IPC: 0.98986 cumulative IPC: 1.04907 (Simulation time: 0 hr 5 min 25 sec) 
Heartbeat CPU  0 instructions:  176000000 cycles:  115522422 heartbeat IPC: 1.42341 cumulative IPC: 1.05272 (Simulation time: 0 hr 5 min 27 sec) 
Heartbeat CPU  0 instructions:  177000003 cycles:  116179823 heartbeat IPC: 1.52115 cumulative IPC: 1.05694 (Simulation time: 0 hr 5 min 29 sec) 
Heartbeat CPU  0 instructions:  178000003 cycles:  117375038 heartbeat IPC: 0.83667 cumulative IPC: 1.05339 (Simulation time: 0 hr 5 min 31 sec) 
Heartbeat CPU  0 instructions:  179000003 cycles:  118525111 heartbeat IPC: 0.86951 cumulative IPC: 1.05057 (Simulation time: 0 hr 5 min 33 sec) 
Heartbeat CPU  0 instructions:  180000000 cycles:  119320163 heartbeat IPC: 1.25778 cumulative IPC: 1.05274 (Simulation time: 0 hr 5 min 35 sec) 
Heartbeat CPU  0 instructions:  181000002 cycles:  119998890 heartbeat IPC: 1.47335 cumulative IPC: 1.05647 (Simulation time: 0 hr 5 min 38 sec) 
Heartbeat CPU  0 instructions:  182000003 cycles:  120916535 heartbeat IPC: 1.08975 cumulative IPC: 1.05686 (Simulation time: 0 hr 5 min 40 sec) 
Heartbeat CPU  0 instructions:  183000002 cycles:  122065709 heartbeat IPC: 0.87019 cumulative IPC: 1.05413 (Simulation time: 0 hr 5 min 42 sec) 
Heartbeat CPU  0 instructions:  184000000 cycles:  123089873 heartbeat IPC: 0.97640 cumulative IPC: 1.05314 (Simulation time: 0 hr 5 min 44 sec) 
Heartbeat CPU  0 instructions:  185000003 cycles:  123785731 heartbeat IPC: 1.43708 cumulative IPC: 1.05646 (Simulation time: 0 hr 5 min 46 sec) 
Heartbeat CPU  0 instructions:  186000001 cycles:  124440731 heartbeat IPC: 1.52671 cumulative IPC: 1.06025 (Simulation time: 0 hr 5 min 48 sec) 
Heartbeat CPU  0 instructions:  187000002 cycles:  125633743 heartbeat IPC: 0.83822 cumulative IPC: 1.05704 (Simulation time: 0 hr 5 min 51 sec) 
Heartbeat CPU  0 instructions:  188000000 cycles:  126785491 heartbeat IPC: 0.86824 cumulative IPC: 1.05443 (Simulation time: 0 hr 5 min 53 sec) 
Heartbeat CPU  0 instructions:  189000001 cycles:  127590443 heartbeat IPC: 1.24231 cumulative IPC: 1.05623 (Simulation time: 0 hr 5 min 55 sec) 
Heartbeat CPU  0 instructions:  190000001 cycles:  128264354 heartbeat IPC: 1.48388 cumulative IPC: 1.05962 (Simulation time: 0 hr 5 min 57 sec) 
Heartbeat CPU  0 instructions:  191000003 cycles:  129187747 heartbeat IPC: 1.08296 cumulative IPC: 1.05987 (Simulation time: 0 hr 5 min 59 sec) 
Heartbeat CPU  0 instructions:  192000000 cycles:  130340644 heartbeat IPC: 0.86738 cumulative IPC: 1.05732 (Simulation time: 0 hr 6 min 1 sec) 
Heartbeat CPU  0 instructions:  193000002 cycles:  131375618 heartbeat IPC: 0.96621 cumulative IPC: 1.05625 (Simulation time: 0 hr 6 min 3 sec) 
Heartbeat CPU  0 instructions:  194000002 cycles:  132073360 heartbeat IPC: 1.43319 cumulative IPC: 1.05921 (Simulation time: 0 hr 6 min 6 sec) 
Heartbeat CPU  0 instructions:  195000003 cycles:  132729565 heartbeat IPC: 1.52392 cumulative IPC: 1.06262 (Simulation time: 0 hr 6 min 8 sec) 
Heartbeat CPU  0 instructions:  196000000 cycles:  133913879 heartbeat IPC: 0.84437 cumulative IPC: 1.05977 (Simulation time: 0 hr 6 min 10 sec) 
Heartbeat CPU  0 instructions:  197000002 cycles:  135082243 heartbeat IPC: 0.85590 cumulative IPC: 1.05717 (Simulation time: 0 hr 6 min 12 sec) 
Heartbeat CPU  0 instructions:  198000001 cycles:  135877774 heartbeat IPC: 1.25702 cumulative IPC: 1.05889 (Simulation time: 0 hr 6 min 14 sec) 
Heartbeat CPU  0 instructions:  199000001 cycles:  136549193 heartbeat IPC: 1.48938 cumulative IPC: 1.06199 (Simulation time: 0 hr 6 min 16 sec) 
Heartbeat CPU  0 instructions:  200000000 cycles:  137441167 heartbeat IPC: 1.12111 cumulative IPC: 1.06255 (Simulation time: 0 hr 6 min 18 sec) 
Heartbeat CPU  0 instructions:  201000003 cycles:  138588961 heartbeat IPC: 0.87124 cumulative IPC: 1.06025 (Simulation time: 0 hr 6 min 21 sec) 
Heartbeat CPU  0 instructions:  202000001 cycles:  139627052 heartbeat IPC: 0.96330 cumulative IPC: 1.05920 (Simulation time: 0 hr 6 min 23 sec) 
Heartbeat CPU  0 instructions:  203000001 cycles:  140338595 heartbeat IPC: 1.40540 cumulative IPC: 1.06174 (Simulation time: 0 hr 6 min 25 sec) 
Heartbeat CPU  0 instructions:  204000000 cycles:  141000836 heartbeat IPC: 1.51002 cumulative IPC: 1.06478 (Simulation time: 0 hr 6 min 27 sec) 
Heartbeat CPU  0 instructions:  205000002 cycles:  142156154 heartbeat IPC: 0.86556 cumulative IPC: 1.06245 (Simulation time: 0 hr 6 min 29 sec) 
Heartbeat CPU  0 instructions:  206000001 cycles:  143327909 heartbeat IPC: 0.85342 cumulative IPC: 1.06000 (Simulation time: 0 hr 6 min 31 sec) 
Heartbeat CPU  0 instructions:  207000000 cycles:  144134368 heartbeat IPC: 1.23999 cumulative IPC: 1.06144 (Simulation time: 0 hr 6 min 33 sec) 
Heartbeat CPU  0 instructions:  208000000 cycles:  144805493 heartbeat IPC: 1.49004 cumulative IPC: 1.06428 (Simulation time: 0 hr 6 min 36 sec) 
Heartbeat CPU  0 instructions:  209000001 cycles:  145682905 heartbeat IPC: 1.13972 cumulative IPC: 1.06492 (Simulation time: 0 hr 6 min 38 sec) 
Heartbeat CPU  0 instructions:  210000000 cycles:  146831620 heartbeat IPC: 0.87054 cumulative IPC: 1.06277 (Simulation time: 0 hr 6 min 40 sec) 
Heartbeat CPU  0 instructions:  211000003 cycles:  147947842 heartbeat IPC: 0.89588 cumulative IPC: 1.06099 (Simulation time: 0 hr 6 min 42 sec) 
Heartbeat CPU  0 instructions:  212000000 cycles:  148810955 heartbeat IPC: 1.15859 cumulative IPC: 1.06178 (Simulation time: 0 hr 6 min 44 sec) 
Heartbeat CPU  0 instructions:  213000002 cycles:  149536855 heartbeat IPC: 1.37760 cumulative IPC: 1.06394 (Simulation time: 0 hr 6 min 46 sec) 
Heartbeat CPU  0 instructions:  214000000 cycles:  150199965 heartbeat IPC: 1.50804 cumulative IPC: 1.06670 (Simulation time: 0 hr 6 min 49 sec) 
Heartbeat CPU  0 instructions:  215000002 cycles:  151361829 heartbeat IPC: 0.86069 cumulative IPC: 1.06448 (Simulation time: 0 hr 6 min 51 sec) 
Heartbeat CPU  0 instructions:  216000000 cycles:  152529228 heartbeat IPC: 0.85660 cumulative IPC: 1.06226 (Simulation time: 0 hr 6 min 53 sec) 
Heartbeat CPU  0 instructions:  217000001 cycles:  153326450 heartbeat IPC: 1.25436 cumulative IPC: 1.06365 (Simulation time: 0 hr 6 min 55 sec) 
Heartbeat CPU  0 instructions:  218000000 cycles:  153994317 heartbeat IPC: 1.49730 cumulative IPC: 1.06627 (Simulation time: 0 hr 6 min 57 sec) 
Heartbeat CPU  0 instructions:  219000000 cycles:  154887182 heartbeat IPC: 1.11999 cumulative IPC: 1.06670 (Simulation time: 0 hr 6 min 59 sec) 
Heartbeat CPU  0 instructions:  220000000 cycles:  156032866 heartbeat IPC: 0.87284 cumulative IPC: 1.06473 (Simulation time: 0 hr 7 min 1 sec) 
Heartbeat CPU  0 instructions:  221000001 cycles:  157070399 heartbeat IPC: 0.96383 cumulative IPC: 1.06381 (Simulation time: 0 hr 7 min 4 sec) 
Heartbeat CPU  0 instructions:  222000002 cycles:  157774931 heartbeat IPC: 1.41938 cumulative IPC: 1.06600 (Simulation time: 0 hr 7 min 6 sec) 
Heartbeat CPU  0 instructions:  223000000 cycles:  158435837 heartbeat IPC: 1.51307 cumulative IPC: 1.06856 (Simulation time: 0 hr 7 min 8 sec) 
Heartbeat CPU  0 instructions:  224000000 cycles:  159616820 heartbeat IPC: 0.84675 cumulative IPC: 1.06631 (Simulation time: 0 hr 7 min 10 sec) 
Heartbeat CPU  0 instructions:  225000001 cycles:  160775031 heartbeat IPC: 0.86340 cumulative IPC: 1.06431 (Simulation time: 0 hr 7 min 12 sec) 
Heartbeat CPU  0 instructions:  226000002 cycles:  161568282 heartbeat IPC: 1.26064 cumulative IPC: 1.06563 (Simulation time: 0 hr 7 min 14 sec) 
Heartbeat CPU  0 instructions:  227000001 cycles:  162248001 heartbeat IPC: 1.47119 cumulative IPC: 1.06795 (Simulation time: 0 hr 7 min 17 sec) 
Heartbeat CPU  0 instructions:  228000000 cycles:  163145477 heartbeat IPC: 1.11423 cumulative IPC: 1.06829 (Simulation time: 0 hr 7 min 19 sec) 
Heartbeat CPU  0 instructions:  229000003 cycles:  164298419 heartbeat IPC: 0.86735 cumulative IPC: 1.06638 (Simulation time: 0 hr 7 min 21 sec) 
Heartbeat CPU  0 instructions:  230000001 cycles:  165327872 heartbeat IPC: 0.97139 cumulative IPC: 1.06558 (Simulation time: 0 hr 7 min 23 sec) 
Heartbeat CPU  0 instructions:  231000002 cycles:  166031542 heartbeat IPC: 1.42112 cumulative IPC: 1.06762 (Simulation time: 0 hr 7 min 25 sec) 
Heartbeat CPU  0 instructions:  232000000 cycles:  166693160 heartbeat IPC: 1.51144 cumulative IPC: 1.07000 (Simulation time: 0 hr 7 min 27 sec) 
Heartbeat CPU  0 instructions:  233000002 cycles:  167862246 heartbeat IPC: 0.85537 cumulative IPC: 1.06798 (Simulation time: 0 hr 7 min 29 sec) 
Heartbeat CPU  0 instructions:  234000003 cycles:  169026595 heartbeat IPC: 0.85885 cumulative IPC: 1.06604 (Simulation time: 0 hr 7 min 32 sec) 
Heartbeat CPU  0 instructions:  235000000 cycles:  169814863 heartbeat IPC: 1.26860 cumulative IPC: 1.06731 (Simulation time: 0 hr 7 min 34 sec) 
Heartbeat CPU  0 instructions:  236000000 cycles:  170496977 heartbeat IPC: 1.46603 cumulative IPC: 1.06944 (Simulation time: 0 hr 7 min 36 sec) 
Heartbeat CPU  0 instructions:  237000003 cycles:  171390947 heartbeat IPC: 1.11861 cumulative IPC: 1.06979 (Simulation time: 0 hr 7 min 38 sec) 
Heartbeat CPU  0 instructions:  238000000 cycles:  172540524 heartbeat IPC: 0.86988 cumulative IPC: 1.06801 (Simulation time: 0 hr 7 min 40 sec) 
Heartbeat CPU  0 instructions:  239000000 cycles:  173564490 heartbeat IPC: 0.97659 cumulative IPC: 1.06729 (Simulation time: 0 hr 7 min 42 sec) 
Heartbeat CPU  0 instructions:  240000000 cycles:  174274796 heartbeat IPC: 1.40784 cumulative IPC: 1.06914 (Simulation time: 0 hr 7 min 44 sec) 
Heartbeat CPU  0 instructions:  241000000 cycles:  174931135 heartbeat IPC: 1.52360 cumulative IPC: 1.07140 (Simulation time: 0 hr 7 min 47 sec) 
Heartbeat CPU  0 instructions:  242000002 cycles:  176091500 heartbeat IPC: 0.86180 cumulative IPC: 1.06957 (Simulation time: 0 hr 7 min 49 sec) 
Heartbeat CPU  0 instructions:  243000001 cycles:  177251617 heartbeat IPC: 0.86198 cumulative IPC: 1.06777 (Simulation time: 0 hr 7 min 51 sec) 
Heartbeat CPU  0 instructions:  244000000 cycles:  178055869 heartbeat IPC: 1.24339 cumulative IPC: 1.06882 (Simulation time: 0 hr 7 min 53 sec) 
Heartbeat CPU  0 instructions:  245000001 cycles:  178740318 heartbeat IPC: 1.46103 cumulative IPC: 1.07080 (Simulation time: 0 hr 7 min 55 sec) 
Heartbeat CPU  0 instructions:  246000000 cycles:  179633559 heartbeat IPC: 1.11952 cumulative IPC: 1.07112 (Simulation time: 0 hr 7 min 57 sec) 
Heartbeat CPU  0 instructions:  247000001 cycles:  180780768 heartbeat IPC: 0.87168 cumulative IPC: 1.06946 (Simulation time: 0 hr 8 min 0 sec) 
Heartbeat CPU  0 instructions:  248000000 cycles:  181819388 heartbeat IPC: 0.96282 cumulative IPC: 1.06866 (Simulation time: 0 hr 8 min 2 sec) 
Heartbeat CPU  0 instructions:  249000003 cycles:  182542299 heartbeat IPC: 1.38330 cumulative IPC: 1.07029 (Simulation time: 0 hr 8 min 4 sec) 
Heartbeat CPU  0 instructions:  250000003 cycles:  183202493 heartbeat IPC: 1.51471 cumulative IPC: 1.07239 (Simulation time: 0 hr 8 min 6 sec) 
Heartbeat CPU  0 instructions:  251000002 cycles:  184377837 heartbeat IPC: 0.85081 cumulative IPC: 1.07054 (Simulation time: 0 hr 8 min 8 sec) 
Heartbeat CPU  0 instructions:  252000000 cycles:  185539942 heartbeat IPC: 0.86051 cumulative IPC: 1.06883 (Simulation time: 0 hr 8 min 10 sec) 
Heartbeat CPU  0 instructions:  253000002 cycles:  186340406 heartbeat IPC: 1.24928 cumulative IPC: 1.06984 (Simulation time: 0 hr 8 min 12 sec) 
Heartbeat CPU  0 instructions:  254000003 cycles:  187017358 heartbeat IPC: 1.47721 cumulative IPC: 1.07176 (Simulation time: 0 hr 8 min 15 sec) 
Heartbeat CPU  0 instructions:  255000002 cycles:  187920940 heartbeat IPC: 1.10671 cumulative IPC: 1.07198 (Simulation time: 0 hr 8 min 17 sec) 
Heartbeat CPU  0 instructions:  256000000 cycles:  189078952 heartbeat IPC: 0.86355 cumulative IPC: 1.07032 (Simulation time: 0 hr 8 min 19 sec) 
Heartbeat CPU  0 instructions:  257000001 cycles:  190100412 heartbeat IPC: 0.97899 cumulative IPC: 1.06968 (Simulation time: 0 hr 8 min 21 sec) 
Heartbeat CPU  0 instructions:  258000000 cycles:  190806085 heartbeat IPC: 1.41709 cumulative IPC: 1.07135 (Simulation time: 0 hr 8 min 23 sec) 
Heartbeat CPU  0 instructions:  259000000 cycles:  191468436 heartbeat IPC: 1.50977 cumulative IPC: 1.07331 (Simulation time: 0 hr 8 min 25 sec) 
Heartbeat CPU  0 instructions:  260000000 cycles:  192667378 heartbeat IPC: 0.83407 cumulative IPC: 1.07139 (Simulation time: 0 hr 8 min 27 sec) 
Heartbeat CPU  0 instructions:  261000003 cycles:  193804962 heartbeat IPC: 0.87906 cumulative IPC: 1.06993 (Simulation time: 0 hr 8 min 30 sec) 
Heartbeat CPU  0 instructions:  262000001 cycles:  194594169 heartbeat IPC: 1.26709 cumulative IPC: 1.07096 (Simulation time: 0 hr 8 min 32 sec) 
Heartbeat CPU  0 instructions:  263000002 cycles:  195265646 heartbeat IPC: 1.48926 cumulative IPC: 1.07281 (Simulation time: 0 hr 8 min 34 sec) 
Heartbeat CPU  0 instructions:  264000000 cycles:  196207049 heartbeat IPC: 1.06224 cumulative IPC: 1.07274 (Simulation time: 0 hr 8 min 36 sec) 
Heartbeat CPU  0 instructions:  265000000 cycles:  197413576 heartbeat IPC: 0.82883 cumulative IPC: 1.07083 (Simulation time: 0 hr 8 min 38 sec) 
Heartbeat CPU  0 instructions:  266000000 cycles:  198456335 heartbeat IPC: 0.95899 cumulative IPC: 1.07008 (Simulation time: 0 hr 8 min 40 sec) 
Heartbeat CPU  0 instructions:  267000002 cycles:  199296595 heartbeat IPC: 1.19011 cumulative IPC: 1.07073 (Simulation time: 0 hr 8 min 43 sec) 
Heartbeat CPU  0 instructions:  268000000 cycles:  200001482 heartbeat IPC: 1.41866 cumulative IPC: 1.07229 (Simulation time: 0 hr 8 min 45 sec) 
Heartbeat CPU  0 instructions:  269000002 cycles:  200658210 heartbeat IPC: 1.52270 cumulative IPC: 1.07417 (Simulation time: 0 hr 8 min 47 sec) 
Heartbeat CPU  0 instructions:  270000003 cycles:  202155338 heartbeat IPC: 0.66795 cumulative IPC: 1.07035 (Simulation time: 0 hr 8 min 49 sec) 
Heartbeat CPU  0 instructions:  271000001 cycles:  203088329 heartbeat IPC: 1.07182 cumulative IPC: 1.07035 (Simulation time: 0 hr 8 min 51 sec) 
Heartbeat CPU  0 instructions:  272000000 cycles:  203771233 heartbeat IPC: 1.46433 cumulative IPC: 1.07203 (Simulation time: 0 hr 8 min 53 sec) 
Heartbeat CPU  0 instructions:  273000001 cycles:  204512073 heartbeat IPC: 1.34982 cumulative IPC: 1.07331 (Simulation time: 0 hr 8 min 55 sec) 
Heartbeat CPU  0 instructions:  274000000 cycles:  206007400 heartbeat IPC: 0.66875 cumulative IPC: 1.06959 (Simulation time: 0 hr 8 min 58 sec) 
Heartbeat CPU  0 instructions:  275000003 cycles:  206822068 heartbeat IPC: 1.22750 cumulative IPC: 1.07038 (Simulation time: 0 hr 9 min 0 sec) 
Heartbeat CPU  0 instructions:  276000000 cycles:  207501783 heartbeat IPC: 1.47120 cumulative IPC: 1.07204 (Simulation time: 0 hr 9 min 2 sec) 
Heartbeat CPU  0 instructions:  277000001 cycles:  208455988 heartbeat IPC: 1.04799 cumulative IPC: 1.07190 (Simulation time: 0 hr 9 min 4 sec) 
Heartbeat CPU  0 instructions:  278000002 cycles:  209798936 heartbeat IPC: 0.74463 cumulative IPC: 1.06926 (Simulation time: 0 hr 9 min 6 sec) 
Heartbeat CPU  0 instructions:  279000003 cycles:  210577575 heartbeat IPC: 1.28429 cumulative IPC: 1.07026 (Simulation time: 0 hr 9 min 9 sec) 
Heartbeat CPU  0 instructions:  280000000 cycles:  211256320 heartbeat IPC: 1.47330 cumulative IPC: 1.07189 (Simulation time: 0 hr 9 min 11 sec) 
Heartbeat CPU  0 instructions:  281000003 cycles:  212261363 heartbeat IPC: 0.99499 cumulative IPC: 1.07143 (Simulation time: 0 hr 9 min 13 sec) 
Heartbeat CPU  0 instructions:  282000001 cycles:  213562887 heartbeat IPC: 0.76833 cumulative IPC: 1.06911 (Simulation time: 0 hr 9 min 15 sec) 
Heartbeat CPU  0 instructions:  283000003 cycles:  214336953 heartbeat IPC: 1.29188 cumulative IPC: 1.07012 (Simulation time: 0 hr 9 min 17 sec) 
Heartbeat CPU  0 instructions:  284000000 cycles:  215004934 heartbeat IPC: 1.49704 cumulative IPC: 1.07178 (Simulation time: 0 hr 9 min 19 sec) 
Heartbeat CPU  0 instructions:  285000002 cycles:  216174000 heartbeat IPC: 0.85539 cumulative IPC: 1.07032 (Simulation time: 0 hr 9 min 22 sec) 
Heartbeat CPU  0 instructions:  286000002 cycles:  217732046 heartbeat IPC: 0.64183 cumulative IPC: 1.06649 (Simulation time: 0 hr 9 min 24 sec) 
Heartbeat CPU  0 instructions:  287000003 cycles:  218652588 heartbeat IPC: 1.08632 cumulative IPC: 1.06659 (Simulation time: 0 hr 9 min 26 sec) 
Heartbeat CPU  0 instructions:  288000000 cycles:  219319853 heartbeat IPC: 1.49865 cumulative IPC: 1.06823 (Simulation time: 0 hr 9 min 28 sec) 
Heartbeat CPU  0 instructions:  289000001 cycles:  220194089 heartbeat IPC: 1.14386 cumulative IPC: 1.06861 (Simulation time: 0 hr 9 min 30 sec) 
Heartbeat CPU  0 instructions:  290000001 cycles:  221636699 heartbeat IPC: 0.69319 cumulative IPC: 1.06557 (Simulation time: 0 hr 9 min 33 sec) 
Heartbeat CPU  0 instructions:  291000003 cycles:  223112784 heartbeat IPC: 0.67747 cumulative IPC: 1.06238 (Simulation time: 0 hr 9 min 35 sec) 
Heartbeat CPU  0 instructions:  292000000 cycles:  224281111 heartbeat IPC: 0.85592 cumulative IPC: 1.06105 (Simulation time: 0 hr 9 min 37 sec) 
Heartbeat CPU  0 instructions:  293000001 cycles:  224999289 heartbeat IPC: 1.39241 cumulative IPC: 1.06236 (Simulation time: 0 hr 9 min 39 sec) 
Heartbeat CPU  0 instructions:  294000002 cycles:  225656257 heartbeat IPC: 1.52215 cumulative IPC: 1.06402 (Simulation time: 0 hr 9 min 41 sec) 
Heartbeat CPU  0 instructions:  295000003 cycles:  226899721 heartbeat IPC: 0.80421 cumulative IPC: 1.06226 (Simulation time: 0 hr 9 min 44 sec) 
Heartbeat CPU  0 instructions:  296000000 cycles:  228136740 heartbeat IPC: 0.80839 cumulative IPC: 1.06056 (Simulation time: 0 hr 9 min 46 sec) 
Heartbeat CPU  0 instructions:  297000002 cycles:  229347621 heartbeat IPC: 0.82585 cumulative IPC: 1.05903 (Simulation time: 0 hr 9 min 48 sec) 
Heartbeat CPU  0 instructions:  298000003 cycles:  230587128 heartbeat IPC: 0.80677 cumulative IPC: 1.05736 (Simulation time: 0 hr 9 min 50 sec) 
Heartbeat CPU  0 instructions:  299000001 cycles:  231497524 heartbeat IPC: 1.09842 cumulative IPC: 1.05756 (Simulation time: 0 hr 9 min 52 sec) 
Heartbeat CPU  0 instructions:  300000000 cycles:  232166843 heartbeat IPC: 1.49405 cumulative IPC: 1.05910 (Simulation time: 0 hr 9 min 54 sec) 
Heartbeat CPU  0 instructions:  301000000 cycles:  233204780 heartbeat IPC: 0.96345 cumulative IPC: 1.05858 (Simulation time: 0 hr 9 min 57 sec) 
Heartbeat CPU  0 instructions:  302000001 cycles:  234436554 heartbeat IPC: 0.81184 cumulative IPC: 1.05699 (Simulation time: 0 hr 9 min 59 sec) 
Heartbeat CPU  0 instructions:  303000003 cycles:  235625420 heartbeat IPC: 0.84114 cumulative IPC: 1.05566 (Simulation time: 0 hr 10 min 1 sec) 
Heartbeat CPU  0 instructions:  304000000 cycles:  236850917 heartbeat IPC: 0.81599 cumulative IPC: 1.05414 (Simulation time: 0 hr 10 min 3 sec) 
Heartbeat CPU  0 instructions:  305000000 cycles:  238194145 heartbeat IPC: 0.74448 cumulative IPC: 1.05200 (Simulation time: 0 hr 10 min 6 sec) 
Heartbeat CPU  0 instructions:  306000002 cycles:  239083011 heartbeat IPC: 1.12503 cumulative IPC: 1.05234 (Simulation time: 0 hr 10 min 8 sec) 
Heartbeat CPU  0 instructions:  307000001 cycles:  239754864 heartbeat IPC: 1.48842 cumulative IPC: 1.05383 (Simulation time: 0 hr 10 min 10 sec) 
Heartbeat CPU  0 instructions:  308000000 cycles:  240698930 heartbeat IPC: 1.05925 cumulative IPC: 1.05385 (Simulation time: 0 hr 10 min 12 sec) 
Heartbeat CPU  0 instructions:  309000002 cycles:  241963727 heartbeat IPC: 0.79064 cumulative IPC: 1.05218 (Simulation time: 0 hr 10 min 14 sec) 
Heartbeat CPU  0 instructions:  310000002 cycles:  243119619 heartbeat IPC: 0.86513 cumulative IPC: 1.05110 (Simulation time: 0 hr 10 min 16 sec) 
Heartbeat CPU  0 instructions:  311000001 cycles:  244356211 heartbeat IPC: 0.80867 cumulative IPC: 1.04960 (Simulation time: 0 hr 10 min 19 sec) 
Heartbeat CPU  0 instructions:  312000000 cycles:  245674695 heartbeat IPC: 0.75845 cumulative IPC: 1.04771 (Simulation time: 0 hr 10 min 21 sec) 
Heartbeat CPU  0 instructions:  313000003 cycles:  246503255 heartbeat IPC: 1.20692 cumulative IPC: 1.04836 (Simulation time: 0 hr 10 min 23 sec) 
Heartbeat CPU  0 instructions:  314000000 cycles:  247176679 heartbeat IPC: 1.48494 cumulative IPC: 1.04980 (Simulation time: 0 hr 10 min 25 sec) 
Heartbeat CPU  0 instructions:  315000003 cycles:  248168619 heartbeat IPC: 1.00813 cumulative IPC: 1.04960 (Simulation time: 0 hr 10 min 27 sec) 
Heartbeat CPU  0 instructions:  316000000 cycles:  249422758 heartbeat IPC: 0.79736 cumulative IPC: 1.04806 (Simulation time: 0 hr 10 min 29 sec) 
Heartbeat CPU  0 instructions:  317000002 cycles:  250769978 heartbeat IPC: 0.74227 cumulative IPC: 1.04608 (Simulation time: 0 hr 10 min 32 sec) 
Heartbeat CPU  0 instructions:  318000001 cycles:  252056380 heartbeat IPC: 0.77736 cumulative IPC: 1.04442 (Simulation time: 0 hr 10 min 34 sec) 
Heartbeat CPU  0 instructions:  319000002 cycles:  252922973 heartbeat IPC: 1.15395 cumulative IPC: 1.04487 (Simulation time: 0 hr 10 min 36 sec) 
Heartbeat CPU  0 instructions:  320000000 cycles:  253606376 heartbeat IPC: 1.46326 cumulative IPC: 1.04623 (Simulation time: 0 hr 10 min 38 sec) 
Heartbeat CPU  0 instructions:  321000000 cycles:  254636522 heartbeat IPC: 0.97074 cumulative IPC: 1.04586 (Simulation time: 0 hr 10 min 40 sec) 
Heartbeat CPU  0 instructions:  322000001 cycles:  255961200 heartbeat IPC: 0.75490 cumulative IPC: 1.04405 (Simulation time: 0 hr 10 min 43 sec) 
Heartbeat CPU  0 instructions:  323000000 cycles:  257322782 heartbeat IPC: 0.73444 cumulative IPC: 1.04208 (Simulation time: 0 hr 10 min 45 sec) 
Heartbeat CPU  0 instructions:  324000000 cycles:  258782903 heartbeat IPC: 0.68487 cumulative IPC: 1.03966 (Simulation time: 0 hr 10 min 47 sec) 
Heartbeat CPU  0 instructions:  325000000 cycles:  259643858 heartbeat IPC: 1.16150 cumulative IPC: 1.04015 (Simulation time: 0 hr 10 min 49 sec) 
Heartbeat CPU  0 instructions:  326000000 cycles:  260314999 heartbeat IPC: 1.49000 cumulative IPC: 1.04154 (Simulation time: 0 hr 10 min 51 sec) 
Heartbeat CPU  0 instructions:  327000001 cycles:  261182816 heartbeat IPC: 1.15232 cumulative IPC: 1.04198 (Simulation time: 0 hr 10 min 54 sec) 
Heartbeat CPU  0 instructions:  328000000 cycles:  262528549 heartbeat IPC: 0.74309 cumulative IPC: 1.04014 (Simulation time: 0 hr 10 min 56 sec) 
Heartbeat CPU  0 instructions:  329000000 cycles:  263853839 heartbeat IPC: 0.75455 cumulative IPC: 1.03843 (Simulation time: 0 hr 10 min 58 sec) 
Heartbeat CPU  0 instructions:  330000000 cycles:  265229086 heartbeat IPC: 0.72714 cumulative IPC: 1.03650 (Simulation time: 0 hr 11 min 0 sec) 
Heartbeat CPU  0 instructions:  331000003 cycles:  266074297 heartbeat IPC: 1.18314 cumulative IPC: 1.03706 (Simulation time: 0 hr 11 min 2 sec) 
Heartbeat CPU  0 instructions:  332000000 cycles:  266748776 heartbeat IPC: 1.48262 cumulative IPC: 1.03840 (Simulation time: 0 hr 11 min 5 sec) 
Heartbeat CPU  0 instructions:  333000000 cycles:  267650491 heartbeat IPC: 1.10900 cumulative IPC: 1.03868 (Simulation time: 0 hr 11 min 7 sec) 
Heartbeat CPU  0 instructions:  334000002 cycles:  269063596 heartbeat IPC: 0.70766 cumulative IPC: 1.03661 (Simulation time: 0 hr 11 min 9 sec) 
Heartbeat CPU  0 instructions:  335000002 cycles:  270467067 heartbeat IPC: 0.71252 cumulative IPC: 1.03461 (Simulation time: 0 hr 11 min 11 sec) 
Heartbeat CPU  0 instructions:  336000000 cycles:  271699192 heartbeat IPC: 0.81160 cumulative IPC: 1.03341 (Simulation time: 0 hr 11 min 14 sec) 
Heartbeat CPU  0 instructions:  337000003 cycles:  272549008 heartbeat IPC: 1.17673 cumulative IPC: 1.03394 (Simulation time: 0 hr 11 min 16 sec) 
Heartbeat CPU  0 instructions:  338000000 cycles:  273278134 heartbeat IPC: 1.37150 cumulative IPC: 1.03501 (Simulation time: 0 hr 11 min 18 sec) 
Heartbeat CPU  0 instructions:  339000001 cycles:  273937988 heartbeat IPC: 1.51549 cumulative IPC: 1.03638 (Simulation time: 0 hr 11 min 20 sec) 
Heartbeat CPU  0 instructions:  340000000 cycles:  275242854 heartbeat IPC: 0.76636 cumulative IPC: 1.03486 (Simulation time: 0 hr 11 min 22 sec) 
Heartbeat CPU  0 instructions:  341000000 cycles:  276654174 heartbeat IPC: 0.70856 cumulative IPC: 1.03289 (Simulation time: 0 hr 11 min 24 sec) 
Heartbeat CPU  0 instructions:  342000001 cycles:  277861910 heartbeat IPC: 0.82800 cumulative IPC: 1.03183 (Simulation time: 0 hr 11 min 27 sec) 
Heartbeat CPU  0 instructions:  343000001 cycles:  278636243 heartbeat IPC: 1.29143 cumulative IPC: 1.03269 (Simulation time: 0 hr 11 min 29 sec) 
Heartbeat CPU  0 instructions:  344000000 cycles:  279309324 heartbeat IPC: 1.48570 cumulative IPC: 1.03398 (Simulation time: 0 hr 11 min 31 sec) 
Heartbeat CPU  0 instructions:  345000002 cycles:  280482491 heartbeat IPC: 0.85240 cumulative IPC: 1.03308 (Simulation time: 0 hr 11 min 33 sec) 
Heartbeat CPU  0 instructions:  346000000 cycles:  281859656 heartbeat IPC: 0.72613 cumulative IPC: 1.03131 (Simulation time: 0 hr 11 min 35 sec) 
Heartbeat CPU  0 instructions:  347000000 cycles:  283209725 heartbeat IPC: 0.74070 cumulative IPC: 1.02967 (Simulation time: 0 hr 11 min 38 sec) 
Heartbeat CPU  0 instructions:  348000000 cycles:  284000472 heartbeat IPC: 1.26463 cumulative IPC: 1.03045 (Simulation time: 0 hr 11 min 40 sec) 
Heartbeat CPU  0 instructions:  349000003 cycles:  284672131 heartbeat IPC: 1.48886 cumulative IPC: 1.03172 (Simulation time: 0 hr 11 min 42 sec) 
Heartbeat CPU  0 instructions:  350000000 cycles:  285631188 heartbeat IPC: 1.04269 cumulative IPC: 1.03177 (Simulation time: 0 hr 11 min 44 sec) 
Heartbeat CPU  0 instructions:  351000000 cycles:  286998274 heartbeat IPC: 0.73148 cumulative IPC: 1.03008 (Simulation time: 0 hr 11 min 46 sec) 
Heartbeat CPU  0 instructions:  352000000 cycles:  288273478 heartbeat IPC: 0.78419 cumulative IPC: 1.02880 (Simulation time: 0 hr 11 min 48 sec) 
Heartbeat CPU  0 instructions:  353000001 cycles:  289061866 heartbeat IPC: 1.26841 cumulative IPC: 1.02957 (Simulation time: 0 hr 11 min 51 sec) 
Heartbeat CPU  0 instructions:  354000000 cycles:  289749754 heartbeat IPC: 1.45372 cumulative IPC: 1.03075 (Simulation time: 0 hr 11 min 53 sec) 
Heartbeat CPU  0 instructions:  355000002 cycles:  290749721 heartbeat IPC: 1.00004 cumulative IPC: 1.03063 (Simulation time: 0 hr 11 min 55 sec) 
Heartbeat CPU  0 instructions:  356000000 cycles:  292076049 heartbeat IPC: 0.75396 cumulative IPC: 1.02915 (Simulation time: 0 hr 11 min 57 sec) 
Heartbeat CPU  0 instructions:  357000000 cycles:  293343022 heartbeat IPC: 0.78928 cumulative IPC: 1.02794 (Simulation time: 0 hr 11 min 59 sec) 
Heartbeat CPU  0 instructions:  358000002 cycles:  294178904 heartbeat IPC: 1.19634 cumulative IPC: 1.02850 (Simulation time: 0 hr 12 min 1 sec) 
Heartbeat CPU  0 instructions:  359000000 cycles:  294850825 heartbeat IPC: 1.48827 cumulative IPC: 1.02973 (Simulation time: 0 hr 12 min 4 sec) 
Heartbeat CPU  0 instructions:  360000000 cycles:  295800655 heartbeat IPC: 1.05282 cumulative IPC: 1.02982 (Simulation time: 0 hr 12 min 6 sec) 
Heartbeat CPU  0 instructions:  361000002 cycles:  297083728 heartbeat IPC: 0.77938 cumulative IPC: 1.02855 (Simulation time: 0 hr 12 min 8 sec) 
Heartbeat CPU  0 instructions:  362000001 cycles:  298347049 heartbeat IPC: 0.79156 cumulative IPC: 1.02737 (Simulation time: 0 hr 12 min 10 sec) 
Heartbeat CPU  0 instructions:  363000002 cycles:  299473190 heartbeat IPC: 0.88799 cumulative IPC: 1.02676 (Simulation time: 0 hr 12 min 12 sec) 
Heartbeat CPU  0 instructions:  364000000 cycles:  300259039 heartbeat IPC: 1.27251 cumulative IPC: 1.02751 (Simulation time: 0 hr 12 min 14 sec) 
Heartbeat CPU  0 instructions:  365000002 cycles:  300932100 heartbeat IPC: 1.48575 cumulative IPC: 1.02871 (Simulation time: 0 hr 12 min 17 sec) 
Heartbeat CPU  0 instructions:  366000000 cycles:  302169167 heartbeat IPC: 0.80836 cumulative IPC: 1.02766 (Simulation time: 0 hr 12 min 19 sec) 
Heartbeat CPU  0 instructions:  367000000 cycles:  303597527 heartbeat IPC: 0.70010 cumulative IPC: 1.02586 (Simulation time: 0 hr 12 min 21 sec) 
Heartbeat CPU  0 instructions:  368000000 cycles:  304867965 heartbeat IPC: 0.78713 cumulative IPC: 1.02470 (Simulation time: 0 hr 12 min 23 sec) 
Heartbeat CPU  0 instructions:  369000001 cycles:  305668683 heartbeat IPC: 1.24888 cumulative IPC: 1.02538 (Simulation time: 0 hr 12 min 25 sec) 
Heartbeat CPU  0 instructions:  370000001 cycles:  306345655 heartbeat IPC: 1.47717 cumulative IPC: 1.02655 (Simulation time: 0 hr 12 min 28 sec) 
Heartbeat CPU  0 instructions:  371000000 cycles:  307577295 heartbeat IPC: 0.81192 cumulative IPC: 1.02555 (Simulation time: 0 hr 12 min 30 sec) 
Heartbeat CPU  0 instructions:  372000000 cycles:  309191903 heartbeat IPC: 0.61935 cumulative IPC: 1.02308 (Simulation time: 0 hr 12 min 32 sec) 
Heartbeat CPU  0 instructions:  373000001 cycles:  310272179 heartbeat IPC: 0.92569 cumulative IPC: 1.02269 (Simulation time: 0 hr 12 min 34 sec) 
Heartbeat CPU  0 instructions:  374000001 cycles:  310967899 heartbeat IPC: 1.43736 cumulative IPC: 1.02376 (Simulation time: 0 hr 12 min 36 sec) 
Heartbeat CPU  0 instructions:  375000000 cycles:  311620236 heartbeat IPC: 1.53295 cumulative IPC: 1.02500 (Simulation time: 0 hr 12 min 39 sec) 
Heartbeat CPU  0 instructions:  376000000 cycles:  313231170 heartbeat IPC: 0.62076 cumulative IPC: 1.02259 (Simulation time: 0 hr 12 min 41 sec) 
Heartbeat CPU  0 instructions:  377000001 cycles:  314714681 heartbeat IPC: 0.67408 cumulative IPC: 1.02068 (Simulation time: 0 hr 12 min 43 sec) 
Heartbeat CPU  0 instructions:  378000002 cycles:  315531350 heartbeat IPC: 1.22449 cumulative IPC: 1.02130 (Simulation time: 0 hr 12 min 45 sec) 
Heartbeat CPU  0 instructions:  379000001 cycles:  316210858 heartbeat IPC: 1.47165 cumulative IPC: 1.02242 (Simulation time: 0 hr 12 min 47 sec) 
Heartbeat CPU  0 instructions:  380000000 cycles:  317205538 heartbeat IPC: 1.00535 cumulative IPC: 1.02236 (Simulation time: 0 hr 12 min 50 sec) 
Heartbeat CPU  0 instructions:  381000001 cycles:  318723735 heartbeat IPC: 0.65868 cumulative IPC: 1.02035 (Simulation time: 0 hr 12 min 52 sec) 
Heartbeat CPU  0 instructions:  382000003 cycles:  319986512 heartbeat IPC: 0.79191 cumulative IPC: 1.01931 (Simulation time: 0 hr 12 min 54 sec) 
Heartbeat CPU  0 instructions:  383000000 cycles:  320773259 heartbeat IPC: 1.27105 cumulative IPC: 1.02002 (Simulation time: 0 hr 12 min 56 sec) 
Heartbeat CPU  0 instructions:  384000000 cycles:  321445795 heartbeat IPC: 1.48691 cumulative IPC: 1.02115 (Simulation time: 0 hr 12 min 58 sec) 
Heartbeat CPU  0 instructions:  385000000 cycles:  322784572 heartbeat IPC: 0.74695 cumulative IPC: 1.01984 (Simulation time: 0 hr 13 min 1 sec) 
Heartbeat CPU  0 instructions:  386000000 cycles:  324450849 heartbeat IPC: 0.60014 cumulative IPC: 1.01735 (Simulation time: 0 hr 13 min 3 sec) 
Heartbeat CPU  0 instructions:  387000000 cycles:  325599762 heartbeat IPC: 0.87039 cumulative IPC: 1.01675 (Simulation time: 0 hr 13 min 5 sec) 
Heartbeat CPU  0 instructions:  388000000 cycles:  326314563 heartbeat IPC: 1.39899 cumulative IPC: 1.01772 (Simulation time: 0 hr 13 min 7 sec) 
Heartbeat CPU  0 instructions:  389000000 cycles:  326971270 heartbeat IPC: 1.52275 cumulative IPC: 1.01889 (Simulation time: 0 hr 13 min 9 sec) 
Heartbeat CPU  0 instructions:  390000003 cycles:  328577048 heartbeat IPC: 0.62275 cumulative IPC: 1.01666 (Simulation time: 0 hr 13 min 12 sec) 
Heartbeat CPU  0 instructions:  391000003 cycles:  330188321 heartbeat IPC: 0.62063 cumulative IPC: 1.01443 (Simulation time: 0 hr 13 min 14 sec) 
Heartbeat CPU  0 instructions:  392000000 cycles:  331084001 heartbeat IPC: 1.11647 cumulative IPC: 1.01475 (Simulation time: 0 hr 13 min 16 sec) 
Heartbeat CPU  0 instructions:  393000001 cycles:  331751543 heartbeat IPC: 1.49803 cumulative IPC: 1.01587 (Simulation time: 0 hr 13 min 18 sec) 
Heartbeat CPU  0 instructions:  394000002 cycles:  332684263 heartbeat IPC: 1.07213 cumulative IPC: 1.01605 (Simulation time: 0 hr 13 min 21 sec) 
Heartbeat CPU  0 instructions:  395000002 cycles:  334279516 heartbeat IPC: 0.62686 cumulative IPC: 1.01392 (Simulation time: 0 hr 13 min 23 sec) 
Heartbeat CPU  0 instructions:  396000000 cycles:  335788680 heartbeat IPC: 0.66262 cumulative IPC: 1.01210 (Simulation time: 0 hr 13 min 25 sec) 
Heartbeat CPU  0 instructions:  397000000 cycles:  336709953 heartbeat IPC: 1.08545 cumulative IPC: 1.01233 (Simulation time: 0 hr 13 min 27 sec) 
Heartbeat CPU  0 instructions:  398000001 cycles:  337503956 heartbeat IPC: 1.25944 cumulative IPC: 1.01300 (Simulation time: 0 hr 13 min 29 sec) 
Heartbeat CPU  0 instructions:  399000000 cycles:  338177128 heartbeat IPC: 1.48550 cumulative IPC: 1.01408 (Simulation time: 0 hr 13 min 32 sec) 
Heartbeat CPU  0 instructions:  400000000 cycles:  339139453 heartbeat IPC: 1.03915 cumulative IPC: 1.01416 (Simulation time: 0 hr 13 min 34 sec) 
Heartbeat CPU  0 instructions:  401000002 cycles:  340614872 heartbeat IPC: 0.67777 cumulative IPC: 1.01249 (Simulation time: 0 hr 13 min 36 sec) 
Heartbeat CPU  0 instructions:  402000003 cycles:  341989079 heartbeat IPC: 0.72769 cumulative IPC: 1.01118 (Simulation time: 0 hr 13 min 38 sec) 
Heartbeat CPU  0 instructions:  403000002 cycles:  343018952 heartbeat IPC: 0.97099 cumulative IPC: 1.01104 (Simulation time: 0 hr 13 min 40 sec) 
Heartbeat CPU  0 instructions:  404000000 cycles:  343717778 heartbeat IPC: 1.43097 cumulative IPC: 1.01202 (Simulation time: 0 hr 13 min 43 sec) 
Heartbeat CPU  0 instructions:  405000001 cycles:  344422891 heartbeat IPC: 1.41821 cumulative IPC: 1.01297 (Simulation time: 0 hr 13 min 45 sec) 
Heartbeat CPU  0 instructions:  406000003 cycles:  345977992 heartbeat IPC: 0.64305 cumulative IPC: 1.01107 (Simulation time: 0 hr 13 min 47 sec) 
Heartbeat CPU  0 instructions:  407000000 cycles:  347377143 heartbeat IPC: 0.71472 cumulative IPC: 1.00971 (Simulation time: 0 hr 13 min 49 sec) 
Heartbeat CPU  0 instructions:  408000000 cycles:  348498454 heartbeat IPC: 0.89181 cumulative IPC: 1.00927 (Simulation time: 0 hr 13 min 51 sec) 
Heartbeat CPU  0 instructions:  409000001 cycles:  349257065 heartbeat IPC: 1.31820 cumulative IPC: 1.01004 (Simulation time: 0 hr 13 min 53 sec) 
Heartbeat CPU  0 instructions:  410000002 cycles:  349916617 heartbeat IPC: 1.51618 cumulative IPC: 1.01113 (Simulation time: 0 hr 13 min 56 sec) 
Heartbeat CPU  0 instructions:  411000001 cycles:  351301388 heartbeat IPC: 0.72214 cumulative IPC: 1.00983 (Simulation time: 0 hr 13 min 58 sec) 
Heartbeat CPU  0 instructions:  412000000 cycles:  352823886 heartbeat IPC: 0.65681 cumulative IPC: 1.00809 (Simulation time: 0 hr 14 min 0 sec) 
Heartbeat CPU  0 instructions:  413000001 cycles:  354005561 heartbeat IPC: 0.84626 cumulative IPC: 1.00748 (Simulation time: 0 hr 14 min 2 sec) 
Heartbeat CPU  0 instructions:  414000001 cycles:  354797439 heartbeat IPC: 1.26282 cumulative IPC: 1.00813 (Simulation time: 0 hr 14 min 4 sec) 
Heartbeat CPU  0 instructions:  415000000 cycles:  355461709 heartbeat IPC: 1.50541 cumulative IPC: 1.00918 (Simulation time: 0 hr 14 min 7 sec) 
Heartbeat CPU  0 instructions:  416000000 cycles:  356721965 heartbeat IPC: 0.79349 cumulative IPC: 1.00832 (Simulation time: 0 hr 14 min 9 sec) 
Heartbeat CPU  0 instructions:  417000003 cycles:  358145685 heartbeat IPC: 0.70239 cumulative IPC: 1.00693 (Simulation time: 0 hr 14 min 11 sec) 
Heartbeat CPU  0 instructions:  418000001 cycles:  359583322 heartbeat IPC: 0.69558 cumulative IPC: 1.00552 (Simulation time: 0 hr 14 min 13 sec) 
Heartbeat CPU  0 instructions:  419000000 cycles:  360733211 heartbeat IPC: 0.86965 cumulative IPC: 1.00502 (Simulation time: 0 hr 14 min 15 sec) 
Heartbeat CPU  0 instructions:  420000000 cycles:  361509746 heartbeat IPC: 1.28777 cumulative IPC: 1.00572 (Simulation time: 0 hr 14 min 18 sec) 
Heartbeat CPU  0 instructions:  421000001 cycles:  362178072 heartbeat IPC: 1.49628 cumulative IPC: 1.00674 (Simulation time: 0 hr 14 min 20 sec) 
Heartbeat CPU  0 instructions:  422000000 cycles:  363388646 heartbeat IPC: 0.82605 cumulative IPC: 1.00606 (Simulation time: 0 hr 14 min 22 sec) 
Heartbeat CPU  0 instructions:  423000000 cycles:  364644386 heartbeat IPC: 0.79634 cumulative IPC: 1.00524 (Simulation time: 0 hr 14 min 24 sec) 
Heartbeat CPU  0 instructions:  424000000 cycles:  365872535 heartbeat IPC: 0.81423 cumulative IPC: 1.00451 (Simulation time: 0 hr 14 min 26 sec) 
Heartbeat CPU  0 instructions:  425000001 cycles:  367167887 heartbeat IPC: 0.77199 cumulative IPC: 1.00358 (Simulation time: 0 hr 14 min 29 sec) 
Heartbeat CPU  0 instructions:  426000001 cycles:  368091184 heartbeat IPC: 1.08308 cumulative IPC: 1.00381 (Simulation time: 0 hr 14 min 31 sec) 
Heartbeat CPU  0 instructions:  427000000 cycles:  368777940 heartbeat IPC: 1.45612 cumulative IPC: 1.00476 (Simulation time: 0 hr 14 min 33 sec) 
Heartbeat CPU  0 instructions:  428000000 cycles:  369608632 heartbeat IPC: 1.20382 cumulative IPC: 1.00527 (Simulation time: 0 hr 14 min 35 sec) 
Heartbeat CPU  0 instructions:  429000002 cycles:  370889388 heartbeat IPC: 0.78079 cumulative IPC: 1.00439 (Simulation time: 0 hr 14 min 37 sec) 
Heartbeat CPU  0 instructions:  430000001 cycles:  372142335 heartbeat IPC: 0.79812 cumulative IPC: 1.00361 (Simulation time: 0 hr 14 min 40 sec) 
Heartbeat CPU  0 instructions:  431000001 cycles:  373355662 heartbeat IPC: 0.82418 cumulative IPC: 1.00295 (Simulation time: 0 hr 14 min 42 sec) 
Heartbeat CPU  0 instructions:  432000000 cycles:  374491902 heartbeat IPC: 0.88009 cumulative IPC: 1.00253 (Simulation time: 0 hr 14 min 44 sec) 
Heartbeat CPU  0 instructions:  433000003 cycles:  375250804 heartbeat IPC: 1.31770 cumulative IPC: 1.00325 (Simulation time: 0 hr 14 min 46 sec) 
Heartbeat CPU  0 instructions:  434000003 cycles:  375911642 heartbeat IPC: 1.51323 cumulative IPC: 1.00426 (Simulation time: 0 hr 14 min 48 sec) 
Heartbeat CPU  0 instructions:  435000000 cycles:  377076026 heartbeat IPC: 0.85882 cumulative IPC: 1.00375 (Simulation time: 0 hr 14 min 50 sec) 
Heartbeat CPU  0 instructions:  436000000 cycles:  378309065 heartbeat IPC: 0.81100 cumulative IPC: 1.00304 (Simulation time: 0 hr 14 min 53 sec) 
Heartbeat CPU  0 instructions:  437000002 cycles:  379547449 heartbeat IPC: 0.80751 cumulative IPC: 1.00232 (Simulation time: 0 hr 14 min 55 sec) 
Heartbeat CPU  0 instructions:  438000000 cycles:  380667496 heartbeat IPC: 0.89282 cumulative IPC: 1.00196 (Simulation time: 0 hr 14 min 57 sec) 
Heartbeat CPU  0 instructions:  439000002 cycles:  381412922 heartbeat IPC: 1.34152 cumulative IPC: 1.00271 (Simulation time: 0 hr 14 min 59 sec) 
Heartbeat CPU  0 instructions:  440000000 cycles:  382074828 heartbeat IPC: 1.51079 cumulative IPC: 1.00370 (Simulation time: 0 hr 15 min 1 sec) 
Heartbeat CPU  0 instructions:  441000002 cycles:  383219301 heartbeat IPC: 0.87377 cumulative IPC: 1.00326 (Simulation time: 0 hr 15 min 3 sec) 
Heartbeat CPU  0 instructions:  442000000 cycles:  384453388 heartbeat IPC: 0.81031 cumulative IPC: 1.00256 (Simulation time: 0 hr 15 min 6 sec) 
Heartbeat CPU  0 instructions:  443000002 cycles:  385697618 heartbeat IPC: 0.80371 cumulative IPC: 1.00184 (Simulation time: 0 hr 15 min 8 sec) 
Heartbeat CPU  0 instructions:  444000000 cycles:  386809784 heartbeat IPC: 0.89914 cumulative IPC: 1.00151 (Simulation time: 0 hr 15 min 10 sec) 
Heartbeat CPU  0 instructions:  445000000 cycles:  387551508 heartbeat IPC: 1.34821 cumulative IPC: 1.00226 (Simulation time: 0 hr 15 min 12 sec) 
Heartbeat CPU  0 instructions:  446000001 cycles:  388216357 heartbeat IPC: 1.50410 cumulative IPC: 1.00322 (Simulation time: 0 hr 15 min 14 sec) 
Heartbeat CPU  0 instructions:  447000003 cycles:  389420146 heartbeat IPC: 0.83071 cumulative IPC: 1.00262 (Simulation time: 0 hr 15 min 16 sec) 
Heartbeat CPU  0 instructions:  448000000 cycles:  390657484 heartbeat IPC: 0.80818 cumulative IPC: 1.00193 (Simulation time: 0 hr 15 min 19 sec) 
Heartbeat CPU  0 instructions:  449000001 cycles:  391865875 heartbeat IPC: 0.82755 cumulative IPC: 1.00133 (Simulation time: 0 hr 15 min 21 sec) 
Heartbeat CPU  0 instructions:  450000000 cycles:  393111816 heartbeat IPC: 0.80261 cumulative IPC: 1.00062 (Simulation time: 0 hr 15 min 23 sec) 
Heartbeat CPU  0 instructions:  451000003 cycles:  393989591 heartbeat IPC: 1.13925 cumulative IPC: 1.00097 (Simulation time: 0 hr 15 min 25 sec) 
Heartbeat CPU  0 instructions:  452000000 cycles:  394660300 heartbeat IPC: 1.49096 cumulative IPC: 1.00190 (Simulation time: 0 hr 15 min 27 sec) 
Heartbeat CPU  0 instructions:  453000000 cycles:  395502141 heartbeat IPC: 1.18787 cumulative IPC: 1.00235 (Simulation time: 0 hr 15 min 29 sec) 
Heartbeat CPU  0 instructions:  454000002 cycles:  396737108 heartbeat IPC: 0.80974 cumulative IPC: 1.00167 (Simulation time: 0 hr 15 min 32 sec) 
Heartbeat CPU  0 instructions:  455000002 cycles:  397977111 heartbeat IPC: 0.80645 cumulative IPC: 1.00099 (Simulation time: 0 hr 15 min 34 sec) 
Heartbeat CPU  0 instructions:  456000000 cycles:  399156675 heartbeat IPC: 0.84777 cumulative IPC: 1.00048 (Simulation time: 0 hr 15 min 36 sec) 
Heartbeat CPU  0 instructions:  457000003 cycles:  400250246 heartbeat IPC: 0.91444 cumulative IPC: 1.00022 (Simulation time: 0 hr 15 min 38 sec) 
Heartbeat CPU  0 instructions:  458000001 cycles:  401037038 heartbeat IPC: 1.27098 cumulative IPC: 1.00081 (Simulation time: 0 hr 15 min 40 sec) 
Heartbeat CPU  0 instructions:  459000000 cycles:  401703518 heartbeat IPC: 1.50042 cumulative IPC: 1.00174 (Simulation time: 0 hr 15 min 42 sec) 
Heartbeat CPU  0 instructions:  460000000 cycles:  402862154 heartbeat IPC: 0.86308 cumulative IPC: 1.00130 (Simulation time: 0 hr 15 min 45 sec) 
Heartbeat CPU  0 instructions:  461000002 cycles:  404105425 heartbeat IPC: 0.80433 cumulative IPC: 1.00062 (Simulation time: 0 hr 15 min 47 sec) 
Heartbeat CPU  0 instructions:  462000000 cycles:  405283817 heartbeat IPC: 0.84861 cumulative IPC: 1.00012 (Simulation time: 0 hr 15 min 49 sec) 
Heartbeat CPU  0 instructions:  463000003 cycles:  406401889 heartbeat IPC: 0.89440 cumulative IPC: 0.99980 (Simulation time: 0 hr 15 min 51 sec) 
Heartbeat CPU  0 instructions:  464000000 cycles:  407149842 heartbeat IPC: 1.33698 cumulative IPC: 1.00049 (Simulation time: 0 hr 15 min 53 sec) 
Heartbeat CPU  0 instructions:  465000000 cycles:  407808374 heartbeat IPC: 1.51853 cumulative IPC: 1.00143 (Simulation time: 0 hr 15 min 55 sec) 
Heartbeat CPU  0 instructions:  466000002 cycles:  408931712 heartbeat IPC: 0.89021 cumulative IPC: 1.00108 (Simulation time: 0 hr 15 min 58 sec) 
Heartbeat CPU  0 instructions:  467000002 cycles:  410167443 heartbeat IPC: 0.80924 cumulative IPC: 1.00044 (Simulation time: 0 hr 16 min 0 sec) 
Heartbeat CPU  0 instructions:  468000000 cycles:  411413517 heartbeat IPC: 0.80252 cumulative IPC: 0.99977 (Simulation time: 0 hr 16 min 2 sec) 
Heartbeat CPU  0 instructions:  469000001 cycles:  412319921 heartbeat IPC: 1.10326 cumulative IPC: 1.00002 (Simulation time: 0 hr 16 min 4 sec) 
Heartbeat CPU  0 instructions:  470000002 cycles:  413005718 heartbeat IPC: 1.45816 cumulative IPC: 1.00087 (Simulation time: 0 hr 16 min 6 sec) 
Heartbeat CPU  0 instructions:  471000001 cycles:  413782741 heartbeat IPC: 1.28696 cumulative IPC: 1.00147 (Simulation time: 0 hr 16 min 9 sec) 
Heartbeat CPU  0 instructions:  472000000 cycles:  415045234 heartbeat IPC: 0.79208 cumulative IPC: 1.00076 (Simulation time: 0 hr 16 min 11 sec) 
Heartbeat CPU  0 instructions:  473000003 cycles:  416258738 heartbeat IPC: 0.82406 cumulative IPC: 1.00019 (Simulation time: 0 hr 16 min 13 sec) 
Heartbeat CPU  0 instructions:  474000003 cycles:  417392569 heartbeat IPC: 0.88197 cumulative IPC: 0.99983 (Simulation time: 0 hr 16 min 15 sec) 
Heartbeat CPU  0 instructions:  475000003 cycles:  418259465 heartbeat IPC: 1.15354 cumulative IPC: 1.00018 (Simulation time: 0 hr 16 min 17 sec) 
Heartbeat CPU  0 instructions:  476000000 cycles:  418961205 heartbeat IPC: 1.42502 cumulative IPC: 1.00098 (Simulation time: 0 hr 16 min 19 sec) 
Heartbeat CPU  0 instructions:  477000000 cycles:  419617418 heartbeat IPC: 1.52390 cumulative IPC: 1.00189 (Simulation time: 0 hr 16 min 21 sec) 
Heartbeat CPU  0 instructions:  478000002 cycles:  420834601 heartbeat IPC: 0.82157 cumulative IPC: 1.00131 (Simulation time: 0 hr 16 min 24 sec) 
Heartbeat CPU  0 instructions:  479000003 cycles:  422067465 heartbeat IPC: 0.81112 cumulative IPC: 1.00069 (Simulation time: 0 hr 16 min 26 sec) 
Heartbeat CPU  0 instructions:  480000000 cycles:  423203371 heartbeat IPC: 0.88035 cumulative IPC: 1.00033 (Simulation time: 0 hr 16 min 28 sec) 
Heartbeat CPU  0 instructions:  481000002 cycles:  424006563 heartbeat IPC: 1.24503 cumulative IPC: 1.00084 (Simulation time: 0 hr 16 min 30 sec) 
Heartbeat CPU  0 instructions:  482000002 cycles:  424680273 heartbeat IPC: 1.48432 cumulative IPC: 1.00170 (Simulation time: 0 hr 16 min 32 sec) 
Heartbeat CPU  0 instructions:  483000003 cycles:  425705901 heartbeat IPC: 0.97501 cumulative IPC: 1.00163 (Simulation time: 0 hr 16 min 35 sec) 
Heartbeat CPU  0 instructions:  484000000 cycles:  426923557 heartbeat IPC: 0.82125 cumulative IPC: 1.00105 (Simulation time: 0 hr 16 min 37 sec) 
Heartbeat CPU  0 instructions:  485000003 cycles:  428132459 heartbeat IPC: 0.82720 cumulative IPC: 1.00051 (Simulation time: 0 hr 16 min 39 sec) 
Heartbeat CPU  0 instructions:  486000002 cycles:  429384793 heartbeat IPC: 0.79851 cumulative IPC: 0.99985 (Simulation time: 0 hr 16 min 41 sec) 
Heartbeat CPU  0 instructions:  487000002 cycles:  430345573 heartbeat IPC: 1.04082 cumulative IPC: 0.99995 (Simulation time: 0 hr 16 min 43 sec) 
Heartbeat CPU  0 instructions:  488000000 cycles:  431028809 heartbeat IPC: 1.46362 cumulative IPC: 1.00077 (Simulation time: 0 hr 16 min 45 sec) 
Heartbeat CPU  0 instructions:  489000000 cycles:  431809117 heartbeat IPC: 1.28155 cumulative IPC: 1.00134 (Simulation time: 0 hr 16 min 48 sec) 
Heartbeat CPU  0 instructions:  490000000 cycles:  433063543 heartbeat IPC: 0.79718 cumulative IPC: 1.00068 (Simulation time: 0 hr 16 min 50 sec) 
Heartbeat CPU  0 instructions:  491000002 cycles:  434298649 heartbeat IPC: 0.80965 cumulative IPC: 1.00008 (Simulation time: 0 hr 16 min 52 sec) 
Heartbeat CPU  0 instructions:  492000000 cycles:  435557361 heartbeat IPC: 0.79446 cumulative IPC: 0.99942 (Simulation time: 0 hr 16 min 54 sec) 
Heartbeat CPU  0 instructions:  493000002 cycles:  436627899 heartbeat IPC: 0.93411 cumulative IPC: 0.99924 (Simulation time: 0 hr 16 min 56 sec) 
Heartbeat CPU  0 instructions:  494000000 cycles:  437333895 heartbeat IPC: 1.41644 cumulative IPC: 0.99999 (Simulation time: 0 hr 16 min 59 sec) 
Heartbeat CPU  0 instructions:  495000001 cycles:  437986074 heartbeat IPC: 1.53332 cumulative IPC: 1.00087 (Simulation time: 0 hr 17 min 1 sec) 
Heartbeat CPU  0 instructions:  496000000 cycles:  439243829 heartbeat IPC: 0.79507 cumulative IPC: 1.00021 (Simulation time: 0 hr 17 min 3 sec) 
Heartbeat CPU  0 instructions:  497000001 cycles:  440503703 heartbeat IPC: 0.79373 cumulative IPC: 0.99956 (Simulation time: 0 hr 17 min 5 sec) 
Heartbeat CPU  0 instructions:  498000000 cycles:  441739568 heartbeat IPC: 0.80915 cumulative IPC: 0.99897 (Simulation time: 0 hr 17 min 7 sec) 
Heartbeat CPU  0 instructions:  499000002 cycles:  442863151 heartbeat IPC: 0.89001 cumulative IPC: 0.99866 (Simulation time: 0 hr 17 min 9 sec) 
Heartbeat CPU  0 instructions:  500000000 cycles:  443669069 heartbeat IPC: 1.24082 cumulative IPC: 0.99915 (Simulation time: 0 hr 17 min 12 sec) 
Heartbeat CPU  0 instructions:  501000002 cycles:  444335992 heartbeat IPC: 1.49943 cumulative IPC: 0.99998 (Simulation time: 0 hr 17 min 14 sec) 
Heartbeat CPU  0 instructions:  502000000 cycles:  445485526 heartbeat IPC: 0.86992 cumulative IPC: 0.99961 (Simulation time: 0 hr 17 min 16 sec) 
Heartbeat CPU  0 instructions:  503000000 cycles:  446699437 heartbeat IPC: 0.82378 cumulative IPC: 0.99908 (Simulation time: 0 hr 17 min 18 sec) 
Heartbeat CPU  0 instructions:  504000000 cycles:  447960969 heartbeat IPC: 0.79269 cumulative IPC: 0.99844 (Simulation time: 0 hr 17 min 20 sec) 
Heartbeat CPU  0 instructions:  505000000 cycles:  449215110 heartbeat IPC: 0.79736 cumulative IPC: 0.99781 (Simulation time: 0 hr 17 min 23 sec) 
Heartbeat CPU  0 instructions:  506000001 cycles:  450222769 heartbeat IPC: 0.99240 cumulative IPC: 0.99780 (Simulation time: 0 hr 17 min 25 sec) 
Heartbeat CPU  0 instructions:  507000000 cycles:  450898526 heartbeat IPC: 1.47982 cumulative IPC: 0.99860 (Simulation time: 0 hr 17 min 27 sec) 
Heartbeat CPU  0 instructions:  508000000 cycles:  451718100 heartbeat IPC: 1.22015 cumulative IPC: 0.99905 (Simulation time: 0 hr 17 min 29 sec) 
Heartbeat CPU  0 instructions:  509000003 cycles:  453001276 heartbeat IPC: 0.77932 cumulative IPC: 0.99836 (Simulation time: 0 hr 17 min 31 sec) 
Heartbeat CPU  0 instructions:  510000002 cycles:  454215898 heartbeat IPC: 0.82330 cumulative IPC: 0.99784 (Simulation time: 0 hr 17 min 33 sec) 
Heartbeat CPU  0 instructions:  511000001 cycles:  455449356 heartbeat IPC: 0.81073 cumulative IPC: 0.99728 (Simulation time: 0 hr 17 min 36 sec) 
Heartbeat CPU  0 instructions:  512000000 cycles:  456739578 heartbeat IPC: 0.77506 cumulative IPC: 0.99659 (Simulation time: 0 hr 17 min 38 sec) 
Heartbeat CPU  0 instructions:  513000000 cycles:  457615845 heartbeat IPC: 1.14120 cumulative IPC: 0.99689 (Simulation time: 0 hr 17 min 40 sec) 
Heartbeat CPU  0 instructions:  514000000 cycles:  458296346 heartbeat IPC: 1.46951 cumulative IPC: 0.99767 (Simulation time: 0 hr 17 min 42 sec) 
Heartbeat CPU  0 instructions:  515000000 cycles:  459248612 heartbeat IPC: 1.05013 cumulative IPC: 0.99779 (Simulation time: 0 hr 17 min 44 sec) 
Heartbeat CPU  0 instructions:  516000000 cycles:  460510053 heartbeat IPC: 0.79274 cumulative IPC: 0.99717 (Simulation time: 0 hr 17 min 46 sec) 
Heartbeat CPU  0 instructions:  517000000 cycles:  461689541 heartbeat IPC: 0.84783 cumulative IPC: 0.99675 (Simulation time: 0 hr 17 min 49 sec) 
Heartbeat CPU  0 instructions:  518000003 cycles:  462928990 heartbeat IPC: 0.80681 cumulative IPC: 0.99618 (Simulation time: 0 hr 17 min 51 sec) 
Heartbeat CPU  0 instructions:  519000002 cycles:  464157325 heartbeat IPC: 0.81411 cumulative IPC: 0.99565 (Simulation time: 0 hr 17 min 53 sec) 
Heartbeat CPU  0 instructions:  520000000 cycles:  465005390 heartbeat IPC: 1.17915 cumulative IPC: 0.99602 (Simulation time: 0 hr 17 min 55 sec) 
Heartbeat CPU  0 instructions:  521000001 cycles:  465679625 heartbeat IPC: 1.48316 cumulative IPC: 0.99680 (Simulation time: 0 hr 17 min 57 sec) 
Heartbeat CPU  0 instructions:  522000001 cycles:  466700268 heartbeat IPC: 0.97977 cumulative IPC: 0.99676 (Simulation time: 0 hr 18 min 0 sec) 
Heartbeat CPU  0 instructions:  523000000 cycles:  467941379 heartbeat IPC: 0.80573 cumulative IPC: 0.99620 (Simulation time: 0 hr 18 min 2 sec) 
Heartbeat CPU  0 instructions:  524000000 cycles:  469093135 heartbeat IPC: 0.86824 cumulative IPC: 0.99585 (Simulation time: 0 hr 18 min 4 sec) 
Heartbeat CPU  0 instructions:  525000001 cycles:  470355496 heartbeat IPC: 0.79217 cumulative IPC: 0.99525 (Simulation time: 0 hr 18 min 6 sec) 
Heartbeat CPU  0 instructions:  526000000 cycles:  471525073 heartbeat IPC: 0.85501 cumulative IPC: 0.99487 (Simulation time: 0 hr 18 min 8 sec) 
Heartbeat CPU  0 instructions:  527000002 cycles:  472352358 heartbeat IPC: 1.20878 cumulative IPC: 0.99528 (Simulation time: 0 hr 18 min 10 sec) 
Heartbeat CPU  0 instructions:  528000000 cycles:  473020482 heartbeat IPC: 1.49673 cumulative IPC: 0.99606 (Simulation time: 0 hr 18 min 13 sec) 
Heartbeat CPU  0 instructions:  529000003 cycles:  474108953 heartbeat IPC: 0.91872 cumulative IPC: 0.99587 (Simulation time: 0 hr 18 min 15 sec) 
Heartbeat CPU  0 instructions:  530000003 cycles:  475330506 heartbeat IPC: 0.81863 cumulative IPC: 0.99536 (Simulation time: 0 hr 18 min 17 sec) 
Heartbeat CPU  0 instructions:  531000002 cycles:  476500610 heartbeat IPC: 0.85462 cumulative IPC: 0.99498 (Simulation time: 0 hr 18 min 19 sec) 
Heartbeat CPU  0 instructions:  532000000 cycles:  477760809 heartbeat IPC: 0.79352 cumulative IPC: 0.99440 (Simulation time: 0 hr 18 min 21 sec) 
Heartbeat CPU  0 instructions:  533000000 cycles:  478957815 heartbeat IPC: 0.83542 cumulative IPC: 0.99396 (Simulation time: 0 hr 18 min 24 sec) 
[...]
Heartbeat CPU  0 instructions:  487000000 cycles: 2436267401 heartbeat IPC: 0.53229 cumulative IPC: 0.16627 (Simulation time: 0 hr 35 min 4 sec) 
Heartbeat CPU  0 instructions:  488000000 cycles: 2437972160 heartbeat IPC: 0.58659 cumulative IPC: 0.16658 (Simulation time: 0 hr 35 min 7 sec) 
Heartbeat CPU  0 instructions:  489000003 cycles: 2440026153 heartbeat IPC: 0.48686 cumulative IPC: 0.16686 (Simulation time: 0 hr 35 min 10 sec) 
Heartbeat CPU  0 instructions:  490000001 cycles: 2442016212 heartbeat IPC: 0.50250 cumulative IPC: 0.16715 (Simulation time: 0 hr 35 min 13 sec) 
Heartbeat CPU  0 instructions:  491000002 cycles: 2443854339 heartbeat IPC: 0.54403 cumulative IPC: 0.16744 (Simulation time: 0 hr 35 min 16 sec) 
Heartbeat CPU  0 instructions:  492000000 cycles: 2445734358 heartbeat IPC: 0.53191 cumulative IPC: 0.16774 (Simulation time: 0 hr 35 min 19 sec) 
Heartbeat CPU  0 instructions:  493000000 cycles: 2447610355 heartbeat IPC: 0.53305 cumulative IPC: 0.16803 (Simulation time: 0 hr 35 min 22 sec) 
Heartbeat CPU  0 instructions:  494000003 cycles: 2449530650 heartbeat IPC: 0.52075 cumulative IPC: 0.16832 (Simulation time: 0 hr 35 min 25 sec) 
Heartbeat CPU  0 instructions:  495000003 cycles: 2451416086 heartbeat IPC: 0.53038 cumulative IPC: 0.16861 (Simulation time: 0 hr 35 min 28 sec) 
Heartbeat CPU  0 instructions:  496000000 cycles: 2453332223 heartbeat IPC: 0.52188 cumulative IPC: 0.16890 (Simulation time: 0 hr 35 min 31 sec) 
Heartbeat CPU  0 instructions:  497000001 cycles: 2455218421 heartbeat IPC: 0.53017 cumulative IPC: 0.16919 (Simulation time: 0 hr 35 min 34 sec) 
Heartbeat CPU  0 instructions:  498000003 cycles: 2457128294 heartbeat IPC: 0.52360 cumulative IPC: 0.16948 (Simulation time: 0 hr 35 min 37 sec) 
Heartbeat CPU  0 instructions:  499000002 cycles: 2459077773 heartbeat IPC: 0.51296 cumulative IPC: 0.16976 (Simulation time: 0 hr 35 min 40 sec) 
Heartbeat CPU  0 instructions:  500000000 cycles: 2461187286 heartbeat IPC: 0.47404 cumulative IPC: 0.17004 (Simulation time: 0 hr 35 min 43 sec) 
Heartbeat CPU  0 instructions:  501000000 cycles: 2463387957 heartbeat IPC: 0.45441 cumulative IPC: 0.17030 (Simulation time: 0 hr 35 min 47 sec) 
Heartbeat CPU  0 instructions:  502000002 cycles: 2465266588 heartbeat IPC: 0.53230 cumulative IPC: 0.17059 (Simulation time: 0 hr 35 min 50 sec) 
Heartbeat CPU  0 instructions:  503000001 cycles: 2467152067 heartbeat IPC: 0.53037 cumulative IPC: 0.17088 (Simulation time: 0 hr 35 min 53 sec) 
Heartbeat CPU  0 instructions:  504000000 cycles: 2469322121 heartbeat IPC: 0.46082 cumulative IPC: 0.17114 (Simulation time: 0 hr 35 min 56 sec) 
Heartbeat CPU  0 instructions:  505000003 cycles: 2471682538 heartbeat IPC: 0.42366 cumulative IPC: 0.17140 (Simulation time: 0 hr 36 min 0 sec) 
Heartbeat CPU  0 instructions:  506000000 cycles: 2473735861 heartbeat IPC: 0.48701 cumulative IPC: 0.17167 (Simulation time: 0 hr 36 min 3 sec) 
Heartbeat CPU  0 instructions:  507000003 cycles: 2475803694 heartbeat IPC: 0.48360 cumulative IPC: 0.17194 (Simulation time: 0 hr 36 min 6 sec) 
Heartbeat CPU  0 instructions:  508000000 cycles: 2477781609 heartbeat IPC: 0.50558 cumulative IPC: 0.17222 (Simulation time: 0 hr 36 min 9 sec) 
Heartbeat CPU  0 instructions:  509000000 cycles: 2479746927 heartbeat IPC: 0.50882 cumulative IPC: 0.17250 (Simulation time: 0 hr 36 min 12 sec) 
Heartbeat CPU  0 instructions:  510000000 cycles: 2481673500 heartbeat IPC: 0.51906 cumulative IPC: 0.17278 (Simulation time: 0 hr 36 min 15 sec) 
Heartbeat CPU  0 instructions:  511000000 cycles: 2483579172 heartbeat IPC: 0.52475 cumulative IPC: 0.17306 (Simulation time: 0 hr 36 min 18 sec) 
Heartbeat CPU  0 instructions:  512000000 cycles: 2485503530 heartbeat IPC: 0.51965 cumulative IPC: 0.17335 (Simulation time: 0 hr 36 min 21 sec) 
Heartbeat CPU  0 instructions:  513000003 cycles: 2487447328 heartbeat IPC: 0.51446 cumulative IPC: 0.17362 (Simulation time: 0 hr 36 min 24 sec) 
Heartbeat CPU  0 instructions:  514000000 cycles: 2489605122 heartbeat IPC: 0.46343 cumulative IPC: 0.17389 (Simulation time: 0 hr 36 min 28 sec) 
Heartbeat CPU  0 instructions:  515000001 cycles: 2491589728 heartbeat IPC: 0.50388 cumulative IPC: 0.17416 (Simulation time: 0 hr 36 min 31 sec) 
Heartbeat CPU  0 instructions:  516000000 cycles: 2493582513 heartbeat IPC: 0.50181 cumulative IPC: 0.17444 (Simulation time: 0 hr 36 min 34 sec) 
Heartbeat CPU  0 instructions:  517000002 cycles: 2495782332 heartbeat IPC: 0.45458 cumulative IPC: 0.17469 (Simulation time: 0 hr 36 min 37 sec) 
Heartbeat CPU  0 instructions:  518000000 cycles: 2497733213 heartbeat IPC: 0.51259 cumulative IPC: 0.17497 (Simulation time: 0 hr 36 min 40 sec) 
Heartbeat CPU  0 instructions:  519000001 cycles: 2499644689 heartbeat IPC: 0.52316 cumulative IPC: 0.17525 (Simulation time: 0 hr 36 min 43 sec) 
Heartbeat CPU  0 instructions:  520000000 cycles: 2501537980 heartbeat IPC: 0.52818 cumulative IPC: 0.17553 (Simulation time: 0 hr 36 min 46 sec) 
Heartbeat CPU  0 instructions:  521000002 cycles: 2503273215 heartbeat IPC: 0.57629 cumulative IPC: 0.17582 (Simulation time: 0 hr 36 min 49 sec) 
Heartbeat CPU  0 instructions:  522000001 cycles: 2505135092 heartbeat IPC: 0.53709 cumulative IPC: 0.17610 (Simulation time: 0 hr 36 min 52 sec) 
Heartbeat CPU  0 instructions:  523000001 cycles: 2507050527 heartbeat IPC: 0.52207 cumulative IPC: 0.17637 (Simulation time: 0 hr 36 min 55 sec) 
Heartbeat CPU  0 instructions:  524000000 cycles: 2508994720 heartbeat IPC: 0.51435 cumulative IPC: 0.17665 (Simulation time: 0 hr 36 min 58 sec) 
Heartbeat CPU  0 instructions:  525000001 cycles: 2510915114 heartbeat IPC: 0.52073 cumulative IPC: 0.17692 (Simulation time: 0 hr 37 min 1 sec) 
Heartbeat CPU  0 instructions:  526000000 cycles: 2512925802 heartbeat IPC: 0.49734 cumulative IPC: 0.17719 (Simulation time: 0 hr 37 min 4 sec) 
Heartbeat CPU  0 instructions:  527000001 cycles: 2514904472 heartbeat IPC: 0.50539 cumulative IPC: 0.17746 (Simulation time: 0 hr 37 min 7 sec) 
Heartbeat CPU  0 instructions:  528000000 cycles: 2516936338 heartbeat IPC: 0.49216 cumulative IPC: 0.17773 (Simulation time: 0 hr 37 min 10 sec) 
Heartbeat CPU  0 instructions:  529000000 cycles: 2518791519 heartbeat IPC: 0.53903 cumulative IPC: 0.17801 (Simulation time: 0 hr 37 min 13 sec) 
Heartbeat CPU  0 instructions:  530000000 cycles: 2520729150 heartbeat IPC: 0.51609 cumulative IPC: 0.17828 (Simulation time: 0 hr 37 min 16 sec) 
Heartbeat CPU  0 instructions:  531000001 cycles: 2522651358 heartbeat IPC: 0.52024 cumulative IPC: 0.17855 (Simulation time: 0 hr 37 min 19 sec) 
Heartbeat CPU  0 instructions:  532000000 cycles: 2524715113 heartbeat IPC: 0.48455 cumulative IPC: 0.17881 (Simulation time: 0 hr 37 min 22 sec) 
Heartbeat CPU  0 instructions:  533000000 cycles: 2526472063 heartbeat IPC: 0.56917 cumulative IPC: 0.17909 (Simulation time: 0 hr 37 min 25 sec) 
Heartbeat CPU  0 instructions:  534000000 cycles: 2528643990 heartbeat IPC: 0.46042 cumulative IPC: 0.17935 (Simulation time: 0 hr 37 min 29 sec) 
Heartbeat CPU  0 instructions:  535000002 cycles: 2530308990 heartbeat IPC: 0.60060 cumulative IPC: 0.17964 (Simulation time: 0 hr 37 min 31 sec) 
Heartbeat CPU  0 instructions:  536000000 cycles: 2532112735 heartbeat IPC: 0.55440 cumulative IPC: 0.17992 (Simulation time: 0 hr 37 min 34 sec) 
Heartbeat CPU  0 instructions:  537000000 cycles: 2533921709 heartbeat IPC: 0.55280 cumulative IPC: 0.18019 (Simulation time: 0 hr 37 min 37 sec) 
Heartbeat CPU  0 instructions:  538000000 cycles: 2535712774 heartbeat IPC: 0.55833 cumulative IPC: 0.18047 (Simulation time: 0 hr 37 min 40 sec) 
Heartbeat CPU  0 instructions:  539000000 cycles: 2537526905 heartbeat IPC: 0.55123 cumulative IPC: 0.18075 (Simulation time: 0 hr 37 min 43 sec) 
Heartbeat CPU  0 instructions:  540000000 cycles: 2539188016 heartbeat IPC: 0.60201 cumulative IPC: 0.18104 (Simulation time: 0 hr 37 min 46 sec) 
Heartbeat CPU  0 instructions:  541000003 cycles: 2541224837 heartbeat IPC: 0.49096 cumulative IPC: 0.18130 (Simulation time: 0 hr 37 min 49 sec) 
Heartbeat CPU  0 instructions:  542000001 cycles: 2543198770 heartbeat IPC: 0.50660 cumulative IPC: 0.18156 (Simulation time: 0 hr 37 min 52 sec) 
Heartbeat CPU  0 instructions:  543000000 cycles: 2545138737 heartbeat IPC: 0.51547 cumulative IPC: 0.18183 (Simulation time: 0 hr 37 min 55 sec) 
Heartbeat CPU  0 instructions:  544000000 cycles: 2546951016 heartbeat IPC: 0.55179 cumulative IPC: 0.18210 (Simulation time: 0 hr 37 min 58 sec) 
Heartbeat CPU  0 instructions:  545000000 cycles: 2548894321 heartbeat IPC: 0.51459 cumulative IPC: 0.18237 (Simulation time: 0 hr 38 min 1 sec) 
Heartbeat CPU  0 instructions:  546000003 cycles: 2550894746 heartbeat IPC: 0.49990 cumulative IPC: 0.18263 (Simulation time: 0 hr 38 min 4 sec) 
Heartbeat CPU  0 instructions:  547000000 cycles: 2552710376 heartbeat IPC: 0.55077 cumulative IPC: 0.18290 (Simulation time: 0 hr 38 min 7 sec) 
Heartbeat CPU  0 instructions:  548000000 cycles: 2554564404 heartbeat IPC: 0.53937 cumulative IPC: 0.18317 (Simulation time: 0 hr 38 min 10 sec) 
Heartbeat CPU  0 instructions:  549000000 cycles: 2556452797 heartbeat IPC: 0.52955 cumulative IPC: 0.18344 (Simulation time: 0 hr 38 min 13 sec) 
Heartbeat CPU  0 instructions:  550000000 cycles: 2558465307 heartbeat IPC: 0.49689 cumulative IPC: 0.18369 (Simulation time: 0 hr 38 min 16 sec) 
Heartbeat CPU  0 instructions:  551000003 cycles: 2560340350 heartbeat IPC: 0.53332 cumulative IPC: 0.18396 (Simulation time: 0 hr 38 min 19 sec) 
Heartbeat CPU  0 instructions:  552000000 cycles: 2562174114 heartbeat IPC: 0.54532 cumulative IPC: 0.18423 (Simulation time: 0 hr 38 min 22 sec) 
Heartbeat CPU  0 instructions:  553000000 cycles: 2564072356 heartbeat IPC: 0.52680 cumulative IPC: 0.18450 (Simulation time: 0 hr 38 min 25 sec) 
Heartbeat CPU  0 instructions:  554000002 cycles: 2566012836 heartbeat IPC: 0.51534 cumulative IPC: 0.18476 (Simulation time: 0 hr 38 min 28 sec) 
Heartbeat CPU  0 instructions:  555000002 cycles: 2567974440 heartbeat IPC: 0.50979 cumulative IPC: 0.18502 (Simulation time: 0 hr 38 min 31 sec) 
Heartbeat CPU  0 instructions:  556000000 cycles: 2569777706 heartbeat IPC: 0.55455 cumulative IPC: 0.18529 (Simulation time: 0 hr 38 min 34 sec) 
Heartbeat CPU  0 instructions:  557000001 cycles: 2571716610 heartbeat IPC: 0.51576 cumulative IPC: 0.18555 (Simulation time: 0 hr 38 min 37 sec) 
Heartbeat CPU  0 instructions:  558000003 cycles: 2573594999 heartbeat IPC: 0.53237 cumulative IPC: 0.18581 (Simulation time: 0 hr 38 min 40 sec) 
Heartbeat CPU  0 instructions:  559000002 cycles: 2575305939 heartbeat IPC: 0.58447 cumulative IPC: 0.18609 (Simulation time: 0 hr 38 min 42 sec) 
Heartbeat CPU  0 instructions:  560000000 cycles: 2577219898 heartbeat IPC: 0.52248 cumulative IPC: 0.18635 (Simulation time: 0 hr 38 min 45 sec) 
Heartbeat CPU  0 instructions:  561000003 cycles: 2579166865 heartbeat IPC: 0.51362 cumulative IPC: 0.18661 (Simulation time: 0 hr 38 min 48 sec) 
Heartbeat CPU  0 instructions:  562000001 cycles: 2581074748 heartbeat IPC: 0.52414 cumulative IPC: 0.18687 (Simulation time: 0 hr 38 min 51 sec) 
Heartbeat CPU  0 instructions:  563000001 cycles: 2583001489 heartbeat IPC: 0.51901 cumulative IPC: 0.18713 (Simulation time: 0 hr 38 min 54 sec) 
Heartbeat CPU  0 instructions:  564000000 cycles: 2584929027 heartbeat IPC: 0.51880 cumulative IPC: 0.18739 (Simulation time: 0 hr 38 min 57 sec) 
Heartbeat CPU  0 instructions:  565000002 cycles: 2586830593 heartbeat IPC: 0.52588 cumulative IPC: 0.18765 (Simulation time: 0 hr 39 min 0 sec) 
Heartbeat CPU  0 instructions:  566000003 cycles: 2588854152 heartbeat IPC: 0.49418 cumulative IPC: 0.18790 (Simulation time: 0 hr 39 min 3 sec) 
Heartbeat CPU  0 instructions:  567000000 cycles: 2590739281 heartbeat IPC: 0.53047 cumulative IPC: 0.18816 (Simulation time: 0 hr 39 min 6 sec) 
Heartbeat CPU  0 instructions:  568000000 cycles: 2592607922 heartbeat IPC: 0.53515 cumulative IPC: 0.18842 (Simulation time: 0 hr 39 min 9 sec) 
Heartbeat CPU  0 instructions:  569000000 cycles: 2594537587 heartbeat IPC: 0.51822 cumulative IPC: 0.18867 (Simulation time: 0 hr 39 min 12 sec) 
Heartbeat CPU  0 instructions:  570000001 cycles: 2596561738 heartbeat IPC: 0.49403 cumulative IPC: 0.18892 (Simulation time: 0 hr 39 min 15 sec) 
Heartbeat CPU  0 instructions:  571000000 cycles: 2598384025 heartbeat IPC: 0.54876 cumulative IPC: 0.18918 (Simulation time: 0 hr 39 min 17 sec) 
Heartbeat CPU  0 instructions:  572000000 cycles: 2600351522 heartbeat IPC: 0.50826 cumulative IPC: 0.18944 (Simulation time: 0 hr 39 min 20 sec) 
Heartbeat CPU  0 instructions:  573000001 cycles: 2602221248 heartbeat IPC: 0.53484 cumulative IPC: 0.18970 (Simulation time: 0 hr 39 min 23 sec) 
Heartbeat CPU  0 instructions:  574000000 cycles: 2604127017 heartbeat IPC: 0.52472 cumulative IPC: 0.18995 (Simulation time: 0 hr 39 min 26 sec) 
Heartbeat CPU  0 instructions:  575000003 cycles: 2606048966 heartbeat IPC: 0.52031 cumulative IPC: 0.19021 (Simulation time: 0 hr 39 min 29 sec) 
Heartbeat CPU  0 instructions:  576000000 cycles: 2607974007 heartbeat IPC: 0.51947 cumulative IPC: 0.19046 (Simulation time: 0 hr 39 min 32 sec) 
Heartbeat CPU  0 instructions:  577000000 cycles: 2609732266 heartbeat IPC: 0.56874 cumulative IPC: 0.19072 (Simulation time: 0 hr 39 min 35 sec) 
Heartbeat CPU  0 instructions:  578000002 cycles: 2611622371 heartbeat IPC: 0.52907 cumulative IPC: 0.19098 (Simulation time: 0 hr 39 min 38 sec) 
Heartbeat CPU  0 instructions:  579000003 cycles: 2613549773 heartbeat IPC: 0.51883 cumulative IPC: 0.19123 (Simulation time: 0 hr 39 min 40 sec) 
Heartbeat CPU  0 instructions:  580000000 cycles: 2615386662 heartbeat IPC: 0.54440 cumulative IPC: 0.19149 (Simulation time: 0 hr 39 min 43 sec) 
Heartbeat CPU  0 instructions:  581000001 cycles: 2617109635 heartbeat IPC: 0.58039 cumulative IPC: 0.19176 (Simulation time: 0 hr 39 min 46 sec) 
Heartbeat CPU  0 instructions:  582000000 cycles: 2618966836 heartbeat IPC: 0.53844 cumulative IPC: 0.19202 (Simulation time: 0 hr 39 min 49 sec) 
Heartbeat CPU  0 instructions:  583000000 cycles: 2620890668 heartbeat IPC: 0.51980 cumulative IPC: 0.19227 (Simulation time: 0 hr 39 min 52 sec) 
Heartbeat CPU  0 instructions:  584000000 cycles: 2622846936 heartbeat IPC: 0.51118 cumulative IPC: 0.19251 (Simulation time: 0 hr 39 min 55 sec) 
Heartbeat CPU  0 instructions:  585000001 cycles: 2624728664 heartbeat IPC: 0.53143 cumulative IPC: 0.19277 (Simulation time: 0 hr 39 min 58 sec) 
Heartbeat CPU  0 instructions:  586000001 cycles: 2626595256 heartbeat IPC: 0.53574 cumulative IPC: 0.19302 (Simulation time: 0 hr 40 min 1 sec) 
Heartbeat CPU  0 instructions:  587000001 cycles: 2628625688 heartbeat IPC: 0.49251 cumulative IPC: 0.19326 (Simulation time: 0 hr 40 min 4 sec) 
Heartbeat CPU  0 instructions:  588000000 cycles: 2630628378 heartbeat IPC: 0.49933 cumulative IPC: 0.19351 (Simulation time: 0 hr 40 min 7 sec) 
Heartbeat CPU  0 instructions:  589000002 cycles: 2632748892 heartbeat IPC: 0.47158 cumulative IPC: 0.19374 (Simulation time: 0 hr 40 min 10 sec) 
Heartbeat CPU  0 instructions:  590000001 cycles: 2634525528 heartbeat IPC: 0.56286 cumulative IPC: 0.19400 (Simulation time: 0 hr 40 min 13 sec) 
Heartbeat CPU  0 instructions:  591000001 cycles: 2636407850 heartbeat IPC: 0.53126 cumulative IPC: 0.19425 (Simulation time: 0 hr 40 min 16 sec) 
Heartbeat CPU  0 instructions:  592000000 cycles: 2638314075 heartbeat IPC: 0.52460 cumulative IPC: 0.19450 (Simulation time: 0 hr 40 min 19 sec) 
Heartbeat CPU  0 instructions:  593000000 cycles: 2640213450 heartbeat IPC: 0.52649 cumulative IPC: 0.19475 (Simulation time: 0 hr 40 min 21 sec) 
Heartbeat CPU  0 instructions:  594000003 cycles: 2642103807 heartbeat IPC: 0.52900 cumulative IPC: 0.19500 (Simulation time: 0 hr 40 min 24 sec) 
Heartbeat CPU  0 instructions:  595000000 cycles: 2643936650 heartbeat IPC: 0.54560 cumulative IPC: 0.19525 (Simulation time: 0 hr 40 min 27 sec) 
Heartbeat CPU  0 instructions:  596000000 cycles: 2645744283 heartbeat IPC: 0.55321 cumulative IPC: 0.19551 (Simulation time: 0 hr 40 min 30 sec) 
Heartbeat CPU  0 instructions:  597000001 cycles: 2647653895 heartbeat IPC: 0.52367 cumulative IPC: 0.19575 (Simulation time: 0 hr 40 min 33 sec) 
Heartbeat CPU  0 instructions:  598000001 cycles: 2649491737 heartbeat IPC: 0.54412 cumulative IPC: 0.19601 (Simulation time: 0 hr 40 min 36 sec) 
Heartbeat CPU  0 instructions:  599000003 cycles: 2651256504 heartbeat IPC: 0.56665 cumulative IPC: 0.19626 (Simulation time: 0 hr 40 min 38 sec) 
Heartbeat CPU  0 instructions:  600000000 cycles: 2653132360 heartbeat IPC: 0.53309 cumulative IPC: 0.19651 (Simulation time: 0 hr 40 min 41 sec) 
Finished CPU 0 instructions: 500000000 cycles: 2544384040 cumulative IPC: 0.19651 (Simulation time: 0 hr 40 min 41 sec) 

ChampSim completed all CPUs

[ROI Statistics]
Core_0_instructions 500000000
Core_0_cycles 2544384040
Core_0_IPC 0.19651

Core_0_branch_prediction_accuracy 95.55097
Core_0_branch_MPKI 5.00272
Core_0_average_ROB_occupancy_at_mispredict 120.35097

Core_0_L1D_total_access 237457894
Core_0_L1D_total_hit 200521829
Core_0_L1D_total_miss 36936065
Core_0_L1D_loads 154906832
Core_0_L1D_load_hit 133975214
Core_0_L1D_load_miss 20931618
Core_0_L1D_RFOs 82551062
Core_0_L1D_RFO_hit 66546615
Core_0_L1D_RFO_miss 16004447
Core_0_L1D_prefetches 0
Core_0_L1D_prefetch_hit 0
Core_0_L1D_prefetch_miss 0
Core_0_L1D_writebacks 0
Core_0_L1D_writeback_hit 0
Core_0_L1D_writeback_miss 0
Core_0_L1D_prefetch_requested 0
Core_0_L1D_prefetch_issued 0
Core_0_L1D_prefetch_useful 0
Core_0_L1D_prefetch_useless 0
Core_0_L1D_prefetch_late 0
Core_0_L1D_average_miss_latency 234.20418

Core_0_L1I_total_access 123250327
Core_0_L1I_total_hit 123250101
Core_0_L1I_total_miss 226
Core_0_L1I_loads 123250327
Core_0_L1I_load_hit 123250101
Core_0_L1I_load_miss 226
Core_0_L1I_RFOs 0
Core_0_L1I_RFO_hit 0
Core_0_L1I_RFO_miss 0
Core_0_L1I_prefetches 0
Core_0_L1I_prefetch_hit 0
Core_0_L1I_prefetch_miss 0
Core_0_L1I_writebacks 0
Core_0_L1I_writeback_hit 0
Core_0_L1I_writeback_miss 0
Core_0_L1I_prefetch_requested 0
Core_0_L1I_prefetch_issued 0
Core_0_L1I_prefetch_useful 0
Core_0_L1I_prefetch_useless 0
Core_0_L1I_prefetch_late 0
Core_0_L1I_average_miss_latency 271.78761

Core_0_L2C_total_access 91153472
Core_0_L2C_total_hit 58390607
Core_0_L2C_total_miss 32762865
Core_0_L2C_loads 20931416
Core_0_L2C_load_hit 13661242
Core_0_L2C_load_miss 7270174
Core_0_L2C_RFOs 16004443
Core_0_L2C_RFO_hit 206948
Core_0_L2C_RFO_miss 15797495
Core_0_L2C_prefetches 22109688
Core_0_L2C_prefetch_hit 12420758
Core_0_L2C_prefetch_miss 9688930
Core_0_L2C_writebacks 32107925
Core_0_L2C_writeback_hit 32101659
Core_0_L2C_writeback_miss 6266
Core_0_L2C_prefetch_requested 36540820
Core_0_L2C_prefetch_issued 36540820
Core_0_L2C_prefetch_useful 11638282
Core_0_L2C_prefetch_useless 325246
Core_0_L2C_prefetch_late 91104
Core_0_L2C_average_miss_latency 346.89466

Core_0_LLC_total_access 62280233
Core_0_LLC_total_hit 12406551
Core_0_LLC_total_miss 49873682
Core_0_LLC_loads 7178932
Core_0_LLC_load_hit 5404316
Core_0_LLC_load_miss 1774616
Core_0_LLC_RFOs 15797471
Core_0_LLC_RFO_hit 504186
Core_0_LLC_RFO_miss 15293285
Core_0_LLC_prefetches 9780022
Core_0_LLC_prefetch_hit 439354
Core_0_LLC_prefetch_miss 9340668
Core_0_LLC_writebacks 29523808
Core_0_LLC_writeback_hit 6058695
Core_0_LLC_writeback_miss 23465113
Core_0_LLC_prefetch_requested 0
Core_0_LLC_prefetch_issued 0
Core_0_LLC_prefetch_useful 17862
Core_0_LLC_prefetch_useless 11568881
Core_0_LLC_prefetch_late 0
Core_0_LLC_average_miss_latency 199.58320

Core_0_major_page_fault 0
Core_0_minor_page_fault 401483

CPU 0 L2C GHB prefetcher final stats
Channel_0_RQ_row_buffer_hit 1398112
Channel_0_RQ_row_buffer_miss 25009447
Channel_0_WQ_row_buffer_hit 2833784
Channel_0_WQ_row_buffer_miss 21661552
Channel_0_WQ_full 507
Channel_0_dbus_congested 30557373

avg_congested_cycle 11
