*************************************************
   ChampSim Multicore Out-of-Order Simulator
   Last compiled: Dec 15 2020 16:38:07
*************************************************

trace_0 traces/482.sphinx3-1100B.champsimtrace.xz
CPU 0 L2C IP-based stride prefetcher
Initialize SHIP state
warmup_instructions 100000000
simulation_instructions 500000000
champsim_seed 260

num_cpus 1
cpu_freq 4000
dram_io_freq 2400
page_size 4096
block_size 64
max_read_per_cycle 8
max_fill_per_cycle 1
dram_channels 1
dram_ranks 1
dram_banks 8
dram_rows 65536
dram_columns 128
dram_row_size 8
dram_size 4096
dram_pages 1048576

fetch_width 6
decode_width 6
exec_width 4
lq_width 2
sq_width 2
retire_width 4
scheduler_size 128
branch_mispredict_penalty 20
rob_size 256
lq_size 72
sq_size 56
num_instr_destinations_sparc 4
num_instr_destinations 2
num_instr_sources 4

itlb_set 16
itlb_way 8
itlb_rq_size 16
itlb_wq_size 16
itlb_pq_size 0
itlb_mshr_size 8
itlb_latency 1

dtlb_set 16
dtlb_way 4
dtlb_rq_size 16
dtlb_wq_size 16
dtlb_pq_size 0
dtlb_mshr_size 8
dtlb_latency 1

stlb_set 128
stlb_way 12
stlb_rq_size 32
stlb_wq_size 32
stlb_pq_size 0
stlb_mshr_size 16
stlb_latency 8

l1i_size 32
l1i_set 64
l1i_way 8
l1i_rq_size 64
l1i_wq_size 64
l1i_pq_size 8
l1i_mshr_size 8
l1i_latency 1

l1d_size 32
l1d_set 64
l1d_way 8
l1d_rq_size 64
l1d_wq_size 64
l1d_pq_size 8
l1d_mshr_size 16
l1d_latency 4

l2c_size 512
l2c_set 1024
l2c_way 8
l2c_rq_size 32
l2c_wq_size 32
l2c_pq_size 16
l2c_mshr_size 32
l2c_latency 10

llc_size 2048
llc_set 2048
llc_way 16
llc_rq_size 32
llc_wq_size 32
llc_pq_size 32
llc_mshr_size 64
llc_latency 20

dram_channel_width 8
dram_wq_size 64
dram_rq_size 64
tRP 15
tRCD 15
tCAS 12.5
dram_dbus_turn_around_time 30
dram_write_high_wm 56
dram_write_low_wm 48
min_dram_writes_per_switch 16
dram_mtps 2400
dram_dbus_return_time 13


Heartbeat CPU  0 instructions:    1000001 cycles:     367549 heartbeat IPC: 2.72073 cumulative IPC: 2.72073 (Simulation time: 0 hr 0 min 2 sec) 
Heartbeat CPU  0 instructions:    2000003 cycles:     795073 heartbeat IPC: 2.33905 cumulative IPC: 2.51550 (Simulation time: 0 hr 0 min 3 sec) 
Heartbeat CPU  0 instructions:    3000001 cycles:    1253054 heartbeat IPC: 2.18349 cumulative IPC: 2.39415 (Simulation time: 0 hr 0 min 5 sec) 
Heartbeat CPU  0 instructions:    4000000 cycles:    1735833 heartbeat IPC: 2.07134 cumulative IPC: 2.30437 (Simulation time: 0 hr 0 min 7 sec) 
Heartbeat CPU  0 instructions:    5000000 cycles:    2178313 heartbeat IPC: 2.25999 cumulative IPC: 2.29535 (Simulation time: 0 hr 0 min 8 sec) 
Heartbeat CPU  0 instructions:    6000001 cycles:    2545479 heartbeat IPC: 2.72357 cumulative IPC: 2.35712 (Simulation time: 0 hr 0 min 10 sec) 
Heartbeat CPU  0 instructions:    7000000 cycles:    2936419 heartbeat IPC: 2.55793 cumulative IPC: 2.38386 (Simulation time: 0 hr 0 min 12 sec) 
Heartbeat CPU  0 instructions:    8000000 cycles:    3395015 heartbeat IPC: 2.18057 cumulative IPC: 2.35640 (Simulation time: 0 hr 0 min 13 sec) 
Heartbeat CPU  0 instructions:    9000000 cycles:    3852997 heartbeat IPC: 2.18349 cumulative IPC: 2.33584 (Simulation time: 0 hr 0 min 15 sec) 
Heartbeat CPU  0 instructions:   10000000 cycles:    4343260 heartbeat IPC: 2.03972 cumulative IPC: 2.30242 (Simulation time: 0 hr 0 min 17 sec) 
Heartbeat CPU  0 instructions:   11000001 cycles:    4715476 heartbeat IPC: 2.68661 cumulative IPC: 2.33274 (Simulation time: 0 hr 0 min 19 sec) 
Heartbeat CPU  0 instructions:   12000000 cycles:    5082566 heartbeat IPC: 2.72412 cumulative IPC: 2.36101 (Simulation time: 0 hr 0 min 21 sec) 
Heartbeat CPU  0 instructions:   13000001 cycles:    5531740 heartbeat IPC: 2.22631 cumulative IPC: 2.35007 (Simulation time: 0 hr 0 min 23 sec) 
Heartbeat CPU  0 instructions:   14000000 cycles:    5989716 heartbeat IPC: 2.18352 cumulative IPC: 2.33734 (Simulation time: 0 hr 0 min 24 sec) 
Heartbeat CPU  0 instructions:   15000000 cycles:    6472088 heartbeat IPC: 2.07309 cumulative IPC: 2.31764 (Simulation time: 0 hr 0 min 26 sec) 
Heartbeat CPU  0 instructions:   16000000 cycles:    6882113 heartbeat IPC: 2.43888 cumulative IPC: 2.32487 (Simulation time: 0 hr 0 min 28 sec) 
Heartbeat CPU  0 instructions:   17000003 cycles:    7249243 heartbeat IPC: 2.72384 cumulative IPC: 2.34507 (Simulation time: 0 hr 0 min 30 sec) 
Heartbeat CPU  0 instructions:   18000003 cycles:    7661157 heartbeat IPC: 2.42769 cumulative IPC: 2.34951 (Simulation time: 0 hr 0 min 32 sec) 
Heartbeat CPU  0 instructions:   19000003 cycles:    8119115 heartbeat IPC: 2.18361 cumulative IPC: 2.34016 (Simulation time: 0 hr 0 min 33 sec) 
Heartbeat CPU  0 instructions:   20000000 cycles:    8587527 heartbeat IPC: 2.13487 cumulative IPC: 2.32896 (Simulation time: 0 hr 0 min 35 sec) 
Heartbeat CPU  0 instructions:   21000002 cycles:    9046567 heartbeat IPC: 2.17846 cumulative IPC: 2.32132 (Simulation time: 0 hr 0 min 37 sec) 
Heartbeat CPU  0 instructions:   22000003 cycles:    9413659 heartbeat IPC: 2.72412 cumulative IPC: 2.33703 (Simulation time: 0 hr 0 min 39 sec) 
Heartbeat CPU  0 instructions:   23000001 cycles:    9794247 heartbeat IPC: 2.62751 cumulative IPC: 2.34832 (Simulation time: 0 hr 0 min 41 sec) 
Heartbeat CPU  0 instructions:   24000000 cycles:   10249619 heartbeat IPC: 2.19600 cumulative IPC: 2.34155 (Simulation time: 0 hr 0 min 43 sec) 
Heartbeat CPU  0 instructions:   25000002 cycles:   10705162 heartbeat IPC: 2.19519 cumulative IPC: 2.33532 (Simulation time: 0 hr 0 min 44 sec) 
Heartbeat CPU  0 instructions:   26000002 cycles:   11183988 heartbeat IPC: 2.08844 cumulative IPC: 2.32475 (Simulation time: 0 hr 0 min 46 sec) 
Heartbeat CPU  0 instructions:   27000001 cycles:   11577049 heartbeat IPC: 2.54413 cumulative IPC: 2.33220 (Simulation time: 0 hr 0 min 48 sec) 
Heartbeat CPU  0 instructions:   28000000 cycles:   11943982 heartbeat IPC: 2.72529 cumulative IPC: 2.34428 (Simulation time: 0 hr 0 min 50 sec) 
Heartbeat CPU  0 instructions:   29000001 cycles:   12380287 heartbeat IPC: 2.29198 cumulative IPC: 2.34243 (Simulation time: 0 hr 0 min 52 sec) 
Heartbeat CPU  0 instructions:   30000003 cycles:   12833861 heartbeat IPC: 2.20472 cumulative IPC: 2.33757 (Simulation time: 0 hr 0 min 54 sec) 
Heartbeat CPU  0 instructions:   31000002 cycles:   13287940 heartbeat IPC: 2.20226 cumulative IPC: 2.33294 (Simulation time: 0 hr 0 min 55 sec) 
Heartbeat CPU  0 instructions:   32000000 cycles:   13771086 heartbeat IPC: 2.06976 cumulative IPC: 2.32371 (Simulation time: 0 hr 0 min 57 sec) 
Heartbeat CPU  0 instructions:   33000003 cycles:   14172244 heartbeat IPC: 2.49279 cumulative IPC: 2.32850 (Simulation time: 0 hr 0 min 59 sec) 
Heartbeat CPU  0 instructions:   34000003 cycles:   14539179 heartbeat IPC: 2.72528 cumulative IPC: 2.33851 (Simulation time: 0 hr 1 min 1 sec) 
Heartbeat CPU  0 instructions:   35000000 cycles:   14966344 heartbeat IPC: 2.34101 cumulative IPC: 2.33858 (Simulation time: 0 hr 1 min 3 sec) 
Heartbeat CPU  0 instructions:   36000000 cycles:   15420100 heartbeat IPC: 2.20383 cumulative IPC: 2.33462 (Simulation time: 0 hr 1 min 5 sec) 
Heartbeat CPU  0 instructions:   37000000 cycles:   15874183 heartbeat IPC: 2.20224 cumulative IPC: 2.33083 (Simulation time: 0 hr 1 min 6 sec) 
Heartbeat CPU  0 instructions:   38000003 cycles:   16361873 heartbeat IPC: 2.05049 cumulative IPC: 2.32247 (Simulation time: 0 hr 1 min 8 sec) 
Heartbeat CPU  0 instructions:   39000001 cycles:   16769330 heartbeat IPC: 2.45424 cumulative IPC: 2.32567 (Simulation time: 0 hr 1 min 10 sec) 
Heartbeat CPU  0 instructions:   40000000 cycles:   17136411 heartbeat IPC: 2.72419 cumulative IPC: 2.33421 (Simulation time: 0 hr 1 min 12 sec) 
Heartbeat CPU  0 instructions:   41000003 cycles:   17556583 heartbeat IPC: 2.37998 cumulative IPC: 2.33531 (Simulation time: 0 hr 1 min 14 sec) 
Heartbeat CPU  0 instructions:   42000000 cycles:   18014531 heartbeat IPC: 2.18365 cumulative IPC: 2.33145 (Simulation time: 0 hr 1 min 15 sec) 
Heartbeat CPU  0 instructions:   43000001 cycles:   18470897 heartbeat IPC: 2.19123 cumulative IPC: 2.32799 (Simulation time: 0 hr 1 min 17 sec) 
Heartbeat CPU  0 instructions:   44000000 cycles:   18961056 heartbeat IPC: 2.04015 cumulative IPC: 2.32055 (Simulation time: 0 hr 1 min 19 sec) 
Heartbeat CPU  0 instructions:   45000002 cycles:   19373259 heartbeat IPC: 2.42599 cumulative IPC: 2.32279 (Simulation time: 0 hr 1 min 21 sec) 
Heartbeat CPU  0 instructions:   46000000 cycles:   19740377 heartbeat IPC: 2.72391 cumulative IPC: 2.33025 (Simulation time: 0 hr 1 min 23 sec) 
Heartbeat CPU  0 instructions:   47000002 cycles:   20153535 heartbeat IPC: 2.42039 cumulative IPC: 2.33210 (Simulation time: 0 hr 1 min 24 sec) 
Heartbeat CPU  0 instructions:   48000000 cycles:   20613228 heartbeat IPC: 2.17536 cumulative IPC: 2.32860 (Simulation time: 0 hr 1 min 26 sec) 
Heartbeat CPU  0 instructions:   49000003 cycles:   21069933 heartbeat IPC: 2.18960 cumulative IPC: 2.32559 (Simulation time: 0 hr 1 min 28 sec) 
Heartbeat CPU  0 instructions:   50000003 cycles:   21580548 heartbeat IPC: 1.95842 cumulative IPC: 2.31690 (Simulation time: 0 hr 1 min 30 sec) 
Heartbeat CPU  0 instructions:   51000002 cycles:   22042772 heartbeat IPC: 2.16345 cumulative IPC: 2.31368 (Simulation time: 0 hr 1 min 31 sec) 
Heartbeat CPU  0 instructions:   52000000 cycles:   22415945 heartbeat IPC: 2.67972 cumulative IPC: 2.31978 (Simulation time: 0 hr 1 min 33 sec) 
Heartbeat CPU  0 instructions:   53000001 cycles:   22783205 heartbeat IPC: 2.72287 cumulative IPC: 2.32628 (Simulation time: 0 hr 1 min 35 sec) 
Heartbeat CPU  0 instructions:   54000001 cycles:   23232718 heartbeat IPC: 2.22463 cumulative IPC: 2.32431 (Simulation time: 0 hr 1 min 37 sec) 
Heartbeat CPU  0 instructions:   55000001 cycles:   23686245 heartbeat IPC: 2.20494 cumulative IPC: 2.32202 (Simulation time: 0 hr 1 min 39 sec) 
Heartbeat CPU  0 instructions:   56000000 cycles:   24143355 heartbeat IPC: 2.18765 cumulative IPC: 2.31948 (Simulation time: 0 hr 1 min 40 sec) 
Heartbeat CPU  0 instructions:   57000003 cycles:   24628653 heartbeat IPC: 2.06060 cumulative IPC: 2.31438 (Simulation time: 0 hr 1 min 42 sec) 
Heartbeat CPU  0 instructions:   58000001 cycles:   25022140 heartbeat IPC: 2.54137 cumulative IPC: 2.31795 (Simulation time: 0 hr 1 min 44 sec) 
Heartbeat CPU  0 instructions:   59000001 cycles:   25389168 heartbeat IPC: 2.72459 cumulative IPC: 2.32383 (Simulation time: 0 hr 1 min 46 sec) 
Heartbeat CPU  0 instructions:   60000000 cycles:   25828545 heartbeat IPC: 2.27595 cumulative IPC: 2.32301 (Simulation time: 0 hr 1 min 48 sec) 
Heartbeat CPU  0 instructions:   61000000 cycles:   26284575 heartbeat IPC: 2.19284 cumulative IPC: 2.32075 (Simulation time: 0 hr 1 min 49 sec) 
Heartbeat CPU  0 instructions:   62000000 cycles:   26742159 heartbeat IPC: 2.18539 cumulative IPC: 2.31844 (Simulation time: 0 hr 1 min 51 sec) 
Heartbeat CPU  0 instructions:   63000000 cycles:   27229510 heartbeat IPC: 2.05191 cumulative IPC: 2.31367 (Simulation time: 0 hr 1 min 53 sec) 
Heartbeat CPU  0 instructions:   64000000 cycles:   27631576 heartbeat IPC: 2.48715 cumulative IPC: 2.31619 (Simulation time: 0 hr 1 min 55 sec) 
Heartbeat CPU  0 instructions:   65000000 cycles:   27998723 heartbeat IPC: 2.72370 cumulative IPC: 2.32153 (Simulation time: 0 hr 1 min 57 sec) 
Heartbeat CPU  0 instructions:   66000001 cycles:   28423926 heartbeat IPC: 2.35182 cumulative IPC: 2.32199 (Simulation time: 0 hr 1 min 58 sec) 
Heartbeat CPU  0 instructions:   67000003 cycles:   28883643 heartbeat IPC: 2.17526 cumulative IPC: 2.31965 (Simulation time: 0 hr 2 min 0 sec) 
Heartbeat CPU  0 instructions:   68000000 cycles:   29337852 heartbeat IPC: 2.20162 cumulative IPC: 2.31782 (Simulation time: 0 hr 2 min 2 sec) 
Heartbeat CPU  0 instructions:   69000001 cycles:   29824805 heartbeat IPC: 2.05359 cumulative IPC: 2.31351 (Simulation time: 0 hr 2 min 4 sec) 
Heartbeat CPU  0 instructions:   70000001 cycles:   30233939 heartbeat IPC: 2.44419 cumulative IPC: 2.31528 (Simulation time: 0 hr 2 min 5 sec) 
Heartbeat CPU  0 instructions:   71000001 cycles:   30601151 heartbeat IPC: 2.72322 cumulative IPC: 2.32017 (Simulation time: 0 hr 2 min 7 sec) 
Heartbeat CPU  0 instructions:   72000000 cycles:   31016828 heartbeat IPC: 2.40571 cumulative IPC: 2.32132 (Simulation time: 0 hr 2 min 9 sec) 
Heartbeat CPU  0 instructions:   73000000 cycles:   31473680 heartbeat IPC: 2.18889 cumulative IPC: 2.31940 (Simulation time: 0 hr 2 min 11 sec) 
Heartbeat CPU  0 instructions:   74000002 cycles:   31929214 heartbeat IPC: 2.19523 cumulative IPC: 2.31763 (Simulation time: 0 hr 2 min 13 sec) 
Heartbeat CPU  0 instructions:   75000002 cycles:   32417727 heartbeat IPC: 2.04703 cumulative IPC: 2.31355 (Simulation time: 0 hr 2 min 14 sec) 
Heartbeat CPU  0 instructions:   76000000 cycles:   32836526 heartbeat IPC: 2.38778 cumulative IPC: 2.31450 (Simulation time: 0 hr 2 min 16 sec) 
Heartbeat CPU  0 instructions:   77000003 cycles:   33203692 heartbeat IPC: 2.72357 cumulative IPC: 2.31902 (Simulation time: 0 hr 2 min 18 sec) 
Heartbeat CPU  0 instructions:   78000002 cycles:   33611931 heartbeat IPC: 2.44954 cumulative IPC: 2.32060 (Simulation time: 0 hr 2 min 20 sec) 
Heartbeat CPU  0 instructions:   79000000 cycles:   34067291 heartbeat IPC: 2.19606 cumulative IPC: 2.31894 (Simulation time: 0 hr 2 min 22 sec) 
Heartbeat CPU  0 instructions:   80000000 cycles:   34524394 heartbeat IPC: 2.18769 cumulative IPC: 2.31720 (Simulation time: 0 hr 2 min 23 sec) 
Heartbeat CPU  0 instructions:   81000001 cycles:   34983483 heartbeat IPC: 2.17823 cumulative IPC: 2.31538 (Simulation time: 0 hr 2 min 25 sec) 
Heartbeat CPU  0 instructions:   82000001 cycles:   35470322 heartbeat IPC: 2.05407 cumulative IPC: 2.31179 (Simulation time: 0 hr 2 min 27 sec) 
Heartbeat CPU  0 instructions:   83000001 cycles:   35841803 heartbeat IPC: 2.69193 cumulative IPC: 2.31573 (Simulation time: 0 hr 2 min 29 sec) 
Heartbeat CPU  0 instructions:   84000000 cycles:   36209849 heartbeat IPC: 2.71705 cumulative IPC: 2.31981 (Simulation time: 0 hr 2 min 31 sec) 
Heartbeat CPU  0 instructions:   85000003 cycles:   36665539 heartbeat IPC: 2.19448 cumulative IPC: 2.31825 (Simulation time: 0 hr 2 min 32 sec) 
Heartbeat CPU  0 instructions:   86000001 cycles:   37121209 heartbeat IPC: 2.19457 cumulative IPC: 2.31674 (Simulation time: 0 hr 2 min 34 sec) 
Heartbeat CPU  0 instructions:   87000003 cycles:   37578533 heartbeat IPC: 2.18664 cumulative IPC: 2.31515 (Simulation time: 0 hr 2 min 36 sec) 
Heartbeat CPU  0 instructions:   88000000 cycles:   38068170 heartbeat IPC: 2.04232 cumulative IPC: 2.31164 (Simulation time: 0 hr 2 min 38 sec) 
Heartbeat CPU  0 instructions:   89000002 cycles:   38471456 heartbeat IPC: 2.47963 cumulative IPC: 2.31340 (Simulation time: 0 hr 2 min 39 sec) 
Heartbeat CPU  0 instructions:   90000002 cycles:   38838653 heartbeat IPC: 2.72333 cumulative IPC: 2.31728 (Simulation time: 0 hr 2 min 41 sec) 
Heartbeat CPU  0 instructions:   91000002 cycles:   39259562 heartbeat IPC: 2.37581 cumulative IPC: 2.31791 (Simulation time: 0 hr 2 min 43 sec) 
Heartbeat CPU  0 instructions:   92000000 cycles:   39713154 heartbeat IPC: 2.20462 cumulative IPC: 2.31661 (Simulation time: 0 hr 2 min 45 sec) 
Heartbeat CPU  0 instructions:   93000002 cycles:   40169893 heartbeat IPC: 2.18944 cumulative IPC: 2.31517 (Simulation time: 0 hr 2 min 47 sec) 
Heartbeat CPU  0 instructions:   94000001 cycles:   40658378 heartbeat IPC: 2.04714 cumulative IPC: 2.31195 (Simulation time: 0 hr 2 min 48 sec) 
Heartbeat CPU  0 instructions:   95000003 cycles:   41030794 heartbeat IPC: 2.68517 cumulative IPC: 2.31533 (Simulation time: 0 hr 2 min 50 sec) 
Heartbeat CPU  0 instructions:   96000000 cycles:   41397932 heartbeat IPC: 2.72376 cumulative IPC: 2.31896 (Simulation time: 0 hr 2 min 52 sec) 
Heartbeat CPU  0 instructions:   97000001 cycles:   41843901 heartbeat IPC: 2.24231 cumulative IPC: 2.31814 (Simulation time: 0 hr 2 min 54 sec) 
Heartbeat CPU  0 instructions:   98000002 cycles:   42300456 heartbeat IPC: 2.19032 cumulative IPC: 2.31676 (Simulation time: 0 hr 2 min 56 sec) 
Heartbeat CPU  0 instructions:   99000003 cycles:   42786669 heartbeat IPC: 2.05671 cumulative IPC: 2.31380 (Simulation time: 0 hr 2 min 57 sec) 
Heartbeat CPU  0 instructions:  100000000 cycles:   43330838 heartbeat IPC: 1.83766 cumulative IPC: 2.30783 (Simulation time: 0 hr 2 min 59 sec) 

Warmup complete CPU  0 instructions:  100000001 cycles:   43330839 (Simulation time: 0 hr 2 min 59 sec) 

Heartbeat CPU  0 instructions:  101000001 cycles:   44212154 heartbeat IPC: 1.13467 cumulative IPC: 1.13467 (Simulation time: 0 hr 3 min 1 sec) 
Heartbeat CPU  0 instructions:  102000003 cycles:   44894965 heartbeat IPC: 1.46454 cumulative IPC: 1.27867 (Simulation time: 0 hr 3 min 4 sec) 
Heartbeat CPU  0 instructions:  103000000 cycles:   45711612 heartbeat IPC: 1.22452 cumulative IPC: 1.26009 (Simulation time: 0 hr 3 min 6 sec) 
Heartbeat CPU  0 instructions:  104000000 cycles:   46783526 heartbeat IPC: 0.93291 cumulative IPC: 1.15852 (Simulation time: 0 hr 3 min 9 sec) 
Heartbeat CPU  0 instructions:  105000000 cycles:   47810737 heartbeat IPC: 0.97351 cumulative IPC: 1.11610 (Simulation time: 0 hr 3 min 11 sec) 
Heartbeat CPU  0 instructions:  106000003 cycles:   48542380 heartbeat IPC: 1.36679 cumulative IPC: 1.15129 (Simulation time: 0 hr 3 min 13 sec) 
Heartbeat CPU  0 instructions:  107000003 cycles:   49182594 heartbeat IPC: 1.56198 cumulative IPC: 1.19622 (Simulation time: 0 hr 3 min 15 sec) 
Heartbeat CPU  0 instructions:  108000000 cycles:   50167101 heartbeat IPC: 1.01573 cumulative IPC: 1.17023 (Simulation time: 0 hr 3 min 18 sec) 
Heartbeat CPU  0 instructions:  109000000 cycles:   51239319 heartbeat IPC: 0.93265 cumulative IPC: 1.13802 (Simulation time: 0 hr 3 min 20 sec) 
Heartbeat CPU  0 instructions:  110000001 cycles:   52084493 heartbeat IPC: 1.18319 cumulative IPC: 1.14238 (Simulation time: 0 hr 3 min 22 sec) 
Heartbeat CPU  0 instructions:  111000000 cycles:   52735891 heartbeat IPC: 1.53516 cumulative IPC: 1.16958 (Simulation time: 0 hr 3 min 24 sec) 
Heartbeat CPU  0 instructions:  112000000 cycles:   53535565 heartbeat IPC: 1.25051 cumulative IPC: 1.17593 (Simulation time: 0 hr 3 min 27 sec) 
Heartbeat CPU  0 instructions:  113000003 cycles:   54576389 heartbeat IPC: 0.96078 cumulative IPC: 1.15601 (Simulation time: 0 hr 3 min 29 sec) 
Heartbeat CPU  0 instructions:  114000001 cycles:   55575248 heartbeat IPC: 1.00114 cumulative IPC: 1.14338 (Simulation time: 0 hr 3 min 31 sec) 
Heartbeat CPU  0 instructions:  115000000 cycles:   56499562 heartbeat IPC: 1.08188 cumulative IPC: 1.13906 (Simulation time: 0 hr 3 min 34 sec) 
Heartbeat CPU  0 instructions:  116000000 cycles:   57149779 heartbeat IPC: 1.53795 cumulative IPC: 1.15783 (Simulation time: 0 hr 3 min 36 sec) 
Heartbeat CPU  0 instructions:  117000000 cycles:   58186626 heartbeat IPC: 0.96446 cumulative IPC: 1.14434 (Simulation time: 0 hr 3 min 38 sec) 
Heartbeat CPU  0 instructions:  118000003 cycles:   59239170 heartbeat IPC: 0.95008 cumulative IPC: 1.13148 (Simulation time: 0 hr 3 min 41 sec) 
Heartbeat CPU  0 instructions:  119000002 cycles:   60347719 heartbeat IPC: 0.90208 cumulative IPC: 1.11654 (Simulation time: 0 hr 3 min 43 sec) 
Heartbeat CPU  0 instructions:  120000000 cycles:   61571142 heartbeat IPC: 0.81738 cumulative IPC: 1.09647 (Simulation time: 0 hr 3 min 45 sec) 
Heartbeat CPU  0 instructions:  121000000 cycles:   62449970 heartbeat IPC: 1.13788 cumulative IPC: 1.09838 (Simulation time: 0 hr 3 min 48 sec) 
Heartbeat CPU  0 instructions:  122000001 cycles:   63102490 heartbeat IPC: 1.53252 cumulative IPC: 1.11270 (Simulation time: 0 hr 3 min 50 sec) 
Heartbeat CPU  0 instructions:  123000001 cycles:   63912136 heartbeat IPC: 1.23511 cumulative IPC: 1.11752 (Simulation time: 0 hr 3 min 52 sec) 
Heartbeat CPU  0 instructions:  124000000 cycles:   65030574 heartbeat IPC: 0.89410 cumulative IPC: 1.10600 (Simulation time: 0 hr 3 min 54 sec) 
Heartbeat CPU  0 instructions:  125000001 cycles:   66110193 heartbeat IPC: 0.92625 cumulative IPC: 1.09749 (Simulation time: 0 hr 3 min 57 sec) 
Heartbeat CPU  0 instructions:  126000003 cycles:   67233313 heartbeat IPC: 0.89038 cumulative IPC: 1.08775 (Simulation time: 0 hr 3 min 59 sec) 
Heartbeat CPU  0 instructions:  127000000 cycles:   68230088 heartbeat IPC: 1.00323 cumulative IPC: 1.08437 (Simulation time: 0 hr 4 min 1 sec) 
Heartbeat CPU  0 instructions:  128000000 cycles:   68921468 heartbeat IPC: 1.44638 cumulative IPC: 1.09415 (Simulation time: 0 hr 4 min 4 sec) 
Heartbeat CPU  0 instructions:  129000000 cycles:   69610155 heartbeat IPC: 1.45204 cumulative IPC: 1.10353 (Simulation time: 0 hr 4 min 6 sec) 
Heartbeat CPU  0 instructions:  130000002 cycles:   70730280 heartbeat IPC: 0.89276 cumulative IPC: 1.09491 (Simulation time: 0 hr 4 min 8 sec) 
Heartbeat CPU  0 instructions:  131000002 cycles:   71809200 heartbeat IPC: 0.92685 cumulative IPC: 1.08855 (Simulation time: 0 hr 4 min 11 sec) 
Heartbeat CPU  0 instructions:  132000000 cycles:   72941807 heartbeat IPC: 0.88292 cumulative IPC: 1.08068 (Simulation time: 0 hr 4 min 13 sec) 
Heartbeat CPU  0 instructions:  133000000 cycles:   73759969 heartbeat IPC: 1.22225 cumulative IPC: 1.08449 (Simulation time: 0 hr 4 min 15 sec) 
Heartbeat CPU  0 instructions:  134000002 cycles:   74415046 heartbeat IPC: 1.52654 cumulative IPC: 1.09380 (Simulation time: 0 hr 4 min 17 sec) 
Heartbeat CPU  0 instructions:  135000001 cycles:   75290378 heartbeat IPC: 1.14242 cumulative IPC: 1.09513 (Simulation time: 0 hr 4 min 20 sec) 
Heartbeat CPU  0 instructions:  136000000 cycles:   76364471 heartbeat IPC: 0.93102 cumulative IPC: 1.08980 (Simulation time: 0 hr 4 min 22 sec) 
Heartbeat CPU  0 instructions:  137000002 cycles:   77444613 heartbeat IPC: 0.92581 cumulative IPC: 1.08461 (Simulation time: 0 hr 4 min 24 sec) 
Heartbeat CPU  0 instructions:  138000002 cycles:   78231277 heartbeat IPC: 1.27119 cumulative IPC: 1.08881 (Simulation time: 0 hr 4 min 27 sec) 
Heartbeat CPU  0 instructions:  139000002 cycles:   78887926 heartbeat IPC: 1.52288 cumulative IPC: 1.09683 (Simulation time: 0 hr 4 min 29 sec) 
Heartbeat CPU  0 instructions:  140000000 cycles:   79809069 heartbeat IPC: 1.08561 cumulative IPC: 1.09654 (Simulation time: 0 hr 4 min 31 sec) 
Heartbeat CPU  0 instructions:  141000000 cycles:   80877785 heartbeat IPC: 0.93570 cumulative IPC: 1.09197 (Simulation time: 0 hr 4 min 33 sec) 
Heartbeat CPU  0 instructions:  142000001 cycles:   81911098 heartbeat IPC: 0.96776 cumulative IPC: 1.08864 (Simulation time: 0 hr 4 min 36 sec) 
Heartbeat CPU  0 instructions:  143000003 cycles:   82634327 heartbeat IPC: 1.38269 cumulative IPC: 1.09405 (Simulation time: 0 hr 4 min 38 sec) 
Heartbeat CPU  0 instructions:  144000000 cycles:   83281021 heartbeat IPC: 1.54632 cumulative IPC: 1.10137 (Simulation time: 0 hr 4 min 40 sec) 
Heartbeat CPU  0 instructions:  145000002 cycles:   84294724 heartbeat IPC: 0.98648 cumulative IPC: 1.09853 (Simulation time: 0 hr 4 min 43 sec) 
Heartbeat CPU  0 instructions:  146000002 cycles:   85389254 heartbeat IPC: 0.91363 cumulative IPC: 1.09372 (Simulation time: 0 hr 4 min 45 sec) 
Heartbeat CPU  0 instructions:  147000002 cycles:   86296215 heartbeat IPC: 1.10258 cumulative IPC: 1.09390 (Simulation time: 0 hr 4 min 47 sec) 
Heartbeat CPU  0 instructions:  148000000 cycles:   86953539 heartbeat IPC: 1.52132 cumulative IPC: 1.10034 (Simulation time: 0 hr 4 min 49 sec) 
Heartbeat CPU  0 instructions:  149000000 cycles:   87692650 heartbeat IPC: 1.35298 cumulative IPC: 1.10455 (Simulation time: 0 hr 4 min 52 sec) 
Heartbeat CPU  0 instructions:  150000003 cycles:   88763856 heartbeat IPC: 0.93353 cumulative IPC: 1.10052 (Simulation time: 0 hr 4 min 54 sec) 
Heartbeat CPU  0 instructions:  151000002 cycles:   89884713 heartbeat IPC: 0.89217 cumulative IPC: 1.09550 (Simulation time: 0 hr 4 min 56 sec) 
Heartbeat CPU  0 instructions:  152000000 cycles:   90792626 heartbeat IPC: 1.10142 cumulative IPC: 1.09562 (Simulation time: 0 hr 4 min 59 sec) 
Heartbeat CPU  0 instructions:  153000001 cycles:   91579465 heartbeat IPC: 1.27091 cumulative IPC: 1.09848 (Simulation time: 0 hr 5 min 1 sec) 
Heartbeat CPU  0 instructions:  154000003 cycles:   92232573 heartbeat IPC: 1.53114 cumulative IPC: 1.10426 (Simulation time: 0 hr 5 min 3 sec) 
Heartbeat CPU  0 instructions:  155000003 cycles:   93102358 heartbeat IPC: 1.14971 cumulative IPC: 1.10505 (Simulation time: 0 hr 5 min 6 sec) 
Heartbeat CPU  0 instructions:  156000000 cycles:   94169064 heartbeat IPC: 0.93746 cumulative IPC: 1.10153 (Simulation time: 0 hr 5 min 8 sec) 
Heartbeat CPU  0 instructions:  157000003 cycles:   95164196 heartbeat IPC: 1.00489 cumulative IPC: 1.09968 (Simulation time: 0 hr 5 min 10 sec) 
Heartbeat CPU  0 instructions:  158000003 cycles:   95858401 heartbeat IPC: 1.44050 cumulative IPC: 1.10418 (Simulation time: 0 hr 5 min 12 sec) 
Heartbeat CPU  0 instructions:  159000000 cycles:   96505976 heartbeat IPC: 1.54422 cumulative IPC: 1.10954 (Simulation time: 0 hr 5 min 15 sec) 
Heartbeat CPU  0 instructions:  160000000 cycles:   97573810 heartbeat IPC: 0.93648 cumulative IPC: 1.10613 (Simulation time: 0 hr 5 min 17 sec) 
Heartbeat CPU  0 instructions:  161000000 cycles:   98649054 heartbeat IPC: 0.93002 cumulative IPC: 1.10271 (Simulation time: 0 hr 5 min 19 sec) 
Heartbeat CPU  0 instructions:  162000003 cycles:   99446708 heartbeat IPC: 1.25368 cumulative IPC: 1.10486 (Simulation time: 0 hr 5 min 22 sec) 
Heartbeat CPU  0 instructions:  163000002 cycles:  100097843 heartbeat IPC: 1.53578 cumulative IPC: 1.10980 (Simulation time: 0 hr 5 min 24 sec) 
Heartbeat CPU  0 instructions:  164000000 cycles:  100950768 heartbeat IPC: 1.17243 cumulative IPC: 1.11073 (Simulation time: 0 hr 5 min 26 sec) 
Heartbeat CPU  0 instructions:  165000000 cycles:  102009520 heartbeat IPC: 0.94451 cumulative IPC: 1.10773 (Simulation time: 0 hr 5 min 28 sec) 
Heartbeat CPU  0 instructions:  166000002 cycles:  102999597 heartbeat IPC: 1.01002 cumulative IPC: 1.10611 (Simulation time: 0 hr 5 min 31 sec) 
Heartbeat CPU  0 instructions:  167000001 cycles:  103693283 heartbeat IPC: 1.44157 cumulative IPC: 1.10996 (Simulation time: 0 hr 5 min 33 sec) 
Heartbeat CPU  0 instructions:  168000000 cycles:  104338585 heartbeat IPC: 1.54966 cumulative IPC: 1.11461 (Simulation time: 0 hr 5 min 35 sec) 
Heartbeat CPU  0 instructions:  169000000 cycles:  105393187 heartbeat IPC: 0.94823 cumulative IPC: 1.11179 (Simulation time: 0 hr 5 min 37 sec) 
Heartbeat CPU  0 instructions:  170000002 cycles:  106477292 heartbeat IPC: 0.92242 cumulative IPC: 1.10853 (Simulation time: 0 hr 5 min 40 sec) 
Heartbeat CPU  0 instructions:  171000003 cycles:  107283500 heartbeat IPC: 1.24038 cumulative IPC: 1.11020 (Simulation time: 0 hr 5 min 42 sec) 
Heartbeat CPU  0 instructions:  172000000 cycles:  107940927 heartbeat IPC: 1.52108 cumulative IPC: 1.11438 (Simulation time: 0 hr 5 min 44 sec) 
Heartbeat CPU  0 instructions:  173000000 cycles:  108789951 heartbeat IPC: 1.17782 cumulative IPC: 1.11520 (Simulation time: 0 hr 5 min 47 sec) 
Heartbeat CPU  0 instructions:  174000000 cycles:  109855521 heartbeat IPC: 0.93846 cumulative IPC: 1.11237 (Simulation time: 0 hr 5 min 49 sec) 
Heartbeat CPU  0 instructions:  175000002 cycles:  110850368 heartbeat IPC: 1.00518 cumulative IPC: 1.11079 (Simulation time: 0 hr 5 min 51 sec) 
Heartbeat CPU  0 instructions:  176000000 cycles:  111546330 heartbeat IPC: 1.43686 cumulative IPC: 1.11412 (Simulation time: 0 hr 5 min 53 sec) 
Heartbeat CPU  0 instructions:  177000003 cycles:  112189487 heartbeat IPC: 1.55483 cumulative IPC: 1.11823 (Simulation time: 0 hr 5 min 56 sec) 
Heartbeat CPU  0 instructions:  178000003 cycles:  113232554 heartbeat IPC: 0.95871 cumulative IPC: 1.11585 (Simulation time: 0 hr 5 min 58 sec) 
Heartbeat CPU  0 instructions:  179000002 cycles:  114320578 heartbeat IPC: 0.91910 cumulative IPC: 1.11284 (Simulation time: 0 hr 6 min 0 sec) 
Heartbeat CPU  0 instructions:  180000000 cycles:  115130315 heartbeat IPC: 1.23497 cumulative IPC: 1.11421 (Simulation time: 0 hr 6 min 2 sec) 
Heartbeat CPU  0 instructions:  181000002 cycles:  115787559 heartbeat IPC: 1.52151 cumulative IPC: 1.11791 (Simulation time: 0 hr 6 min 5 sec) 
Heartbeat CPU  0 instructions:  182000002 cycles:  116629938 heartbeat IPC: 1.18711 cumulative IPC: 1.11870 (Simulation time: 0 hr 6 min 7 sec) 
Heartbeat CPU  0 instructions:  183000002 cycles:  117671434 heartbeat IPC: 0.96016 cumulative IPC: 1.11648 (Simulation time: 0 hr 6 min 9 sec) 
Heartbeat CPU  0 instructions:  184000000 cycles:  118676913 heartbeat IPC: 0.99455 cumulative IPC: 1.11486 (Simulation time: 0 hr 6 min 12 sec) 
Heartbeat CPU  0 instructions:  185000003 cycles:  119373200 heartbeat IPC: 1.43619 cumulative IPC: 1.11780 (Simulation time: 0 hr 6 min 14 sec) 
Heartbeat CPU  0 instructions:  186000001 cycles:  120016902 heartbeat IPC: 1.55351 cumulative IPC: 1.12146 (Simulation time: 0 hr 6 min 16 sec) 
Heartbeat CPU  0 instructions:  187000002 cycles:  121064450 heartbeat IPC: 0.95461 cumulative IPC: 1.11921 (Simulation time: 0 hr 6 min 18 sec) 
Heartbeat CPU  0 instructions:  188000000 cycles:  122153248 heartbeat IPC: 0.91844 cumulative IPC: 1.11643 (Simulation time: 0 hr 6 min 21 sec) 
Heartbeat CPU  0 instructions:  189000001 cycles:  122972505 heartbeat IPC: 1.22062 cumulative IPC: 1.11751 (Simulation time: 0 hr 6 min 23 sec) 
Heartbeat CPU  0 instructions:  190000001 cycles:  123626573 heartbeat IPC: 1.52889 cumulative IPC: 1.12086 (Simulation time: 0 hr 6 min 25 sec) 
Heartbeat CPU  0 instructions:  191000003 cycles:  124467956 heartbeat IPC: 1.18852 cumulative IPC: 1.12156 (Simulation time: 0 hr 6 min 28 sec) 
Heartbeat CPU  0 instructions:  192000000 cycles:  125516974 heartbeat IPC: 0.95327 cumulative IPC: 1.11941 (Simulation time: 0 hr 6 min 30 sec) 
Heartbeat CPU  0 instructions:  193000002 cycles:  126530620 heartbeat IPC: 0.98654 cumulative IPC: 1.11779 (Simulation time: 0 hr 6 min 32 sec) 
Heartbeat CPU  0 instructions:  194000002 cycles:  127227696 heartbeat IPC: 1.43456 cumulative IPC: 1.12042 (Simulation time: 0 hr 6 min 34 sec) 
Heartbeat CPU  0 instructions:  195000001 cycles:  127872755 heartbeat IPC: 1.55024 cumulative IPC: 1.12370 (Simulation time: 0 hr 6 min 37 sec) 
Heartbeat CPU  0 instructions:  196000000 cycles:  128907622 heartbeat IPC: 0.96631 cumulative IPC: 1.12180 (Simulation time: 0 hr 6 min 39 sec) 
Heartbeat CPU  0 instructions:  197000002 cycles:  130008289 heartbeat IPC: 0.90854 cumulative IPC: 1.11909 (Simulation time: 0 hr 6 min 41 sec) 
Heartbeat CPU  0 instructions:  198000001 cycles:  130820159 heartbeat IPC: 1.23172 cumulative IPC: 1.12014 (Simulation time: 0 hr 6 min 44 sec) 
Heartbeat CPU  0 instructions:  199000001 cycles:  131470291 heartbeat IPC: 1.53815 cumulative IPC: 1.12322 (Simulation time: 0 hr 6 min 46 sec) 
Heartbeat CPU  0 instructions:  200000000 cycles:  132297819 heartbeat IPC: 1.20842 cumulative IPC: 1.12401 (Simulation time: 0 hr 6 min 48 sec) 
Heartbeat CPU  0 instructions:  201000003 cycles:  133336726 heartbeat IPC: 0.96255 cumulative IPC: 1.12215 (Simulation time: 0 hr 6 min 50 sec) 
Heartbeat CPU  0 instructions:  202000001 cycles:  134349249 heartbeat IPC: 0.98763 cumulative IPC: 1.12065 (Simulation time: 0 hr 6 min 53 sec) 
Heartbeat CPU  0 instructions:  203000001 cycles:  135059798 heartbeat IPC: 1.40736 cumulative IPC: 1.12287 (Simulation time: 0 hr 6 min 55 sec) 
Heartbeat CPU  0 instructions:  204000000 cycles:  135706336 heartbeat IPC: 1.54670 cumulative IPC: 1.12584 (Simulation time: 0 hr 6 min 57 sec) 
Heartbeat CPU  0 instructions:  205000002 cycles:  136717714 heartbeat IPC: 0.98875 cumulative IPC: 1.12435 (Simulation time: 0 hr 6 min 59 sec) 
Heartbeat CPU  0 instructions:  206000001 cycles:  137813651 heartbeat IPC: 0.91246 cumulative IPC: 1.12190 (Simulation time: 0 hr 7 min 2 sec) 
Heartbeat CPU  0 instructions:  207000000 cycles:  138637706 heartbeat IPC: 1.21351 cumulative IPC: 1.12269 (Simulation time: 0 hr 7 min 4 sec) 
Heartbeat CPU  0 instructions:  208000000 cycles:  139287017 heartbeat IPC: 1.54009 cumulative IPC: 1.12551 (Simulation time: 0 hr 7 min 6 sec) 
Heartbeat CPU  0 instructions:  209000001 cycles:  140106411 heartbeat IPC: 1.22042 cumulative IPC: 1.12632 (Simulation time: 0 hr 7 min 9 sec) 
Heartbeat CPU  0 instructions:  210000000 cycles:  141146092 heartbeat IPC: 0.96183 cumulative IPC: 1.12457 (Simulation time: 0 hr 7 min 11 sec) 
Heartbeat CPU  0 instructions:  211000003 cycles:  142213081 heartbeat IPC: 0.93722 cumulative IPC: 1.12255 (Simulation time: 0 hr 7 min 13 sec) 
Heartbeat CPU  0 instructions:  212000000 cycles:  143092307 heartbeat IPC: 1.13736 cumulative IPC: 1.12268 (Simulation time: 0 hr 7 min 15 sec) 
Heartbeat CPU  0 instructions:  213000002 cycles:  143810665 heartbeat IPC: 1.39207 cumulative IPC: 1.12460 (Simulation time: 0 hr 7 min 18 sec) 
Heartbeat CPU  0 instructions:  214000001 cycles:  144459393 heartbeat IPC: 1.54148 cumulative IPC: 1.12728 (Simulation time: 0 hr 7 min 20 sec) 
Heartbeat CPU  0 instructions:  215000002 cycles:  145479535 heartbeat IPC: 0.98026 cumulative IPC: 1.12581 (Simulation time: 0 hr 7 min 22 sec) 
Heartbeat CPU  0 instructions:  216000000 cycles:  146576098 heartbeat IPC: 0.91194 cumulative IPC: 1.12354 (Simulation time: 0 hr 7 min 25 sec) 
Heartbeat CPU  0 instructions:  217000001 cycles:  147391450 heartbeat IPC: 1.22647 cumulative IPC: 1.12434 (Simulation time: 0 hr 7 min 27 sec) 
Heartbeat CPU  0 instructions:  218000000 cycles:  148040668 heartbeat IPC: 1.54031 cumulative IPC: 1.12692 (Simulation time: 0 hr 7 min 29 sec) 
Heartbeat CPU  0 instructions:  219000000 cycles:  148870676 heartbeat IPC: 1.20481 cumulative IPC: 1.12754 (Simulation time: 0 hr 7 min 31 sec) 
Heartbeat CPU  0 instructions:  220000000 cycles:  149909653 heartbeat IPC: 0.96249 cumulative IPC: 1.12593 (Simulation time: 0 hr 7 min 34 sec) 
Heartbeat CPU  0 instructions:  221000001 cycles:  150924603 heartbeat IPC: 0.98527 cumulative IPC: 1.12460 (Simulation time: 0 hr 7 min 36 sec) 
Heartbeat CPU  0 instructions:  222000003 cycles:  151626881 heartbeat IPC: 1.42394 cumulative IPC: 1.12654 (Simulation time: 0 hr 7 min 38 sec) 
Heartbeat CPU  0 instructions:  223000000 cycles:  152274618 heartbeat IPC: 1.54383 cumulative IPC: 1.12902 (Simulation time: 0 hr 7 min 40 sec) 
Heartbeat CPU  0 instructions:  224000000 cycles:  153310192 heartbeat IPC: 0.96565 cumulative IPC: 1.12748 (Simulation time: 0 hr 7 min 43 sec) 
Heartbeat CPU  0 instructions:  225000001 cycles:  154402824 heartbeat IPC: 0.91522 cumulative IPC: 1.12540 (Simulation time: 0 hr 7 min 45 sec) 
Heartbeat CPU  0 instructions:  226000003 cycles:  155211907 heartbeat IPC: 1.23597 cumulative IPC: 1.12620 (Simulation time: 0 hr 7 min 47 sec) 
Heartbeat CPU  0 instructions:  227000001 cycles:  155864676 heartbeat IPC: 1.53193 cumulative IPC: 1.12855 (Simulation time: 0 hr 7 min 50 sec) 
Heartbeat CPU  0 instructions:  228000000 cycles:  156696590 heartbeat IPC: 1.20205 cumulative IPC: 1.12909 (Simulation time: 0 hr 7 min 52 sec) 
Heartbeat CPU  0 instructions:  229000003 cycles:  157739967 heartbeat IPC: 0.95843 cumulative IPC: 1.12753 (Simulation time: 0 hr 7 min 54 sec) 
Heartbeat CPU  0 instructions:  230000001 cycles:  158749947 heartbeat IPC: 0.99012 cumulative IPC: 1.12633 (Simulation time: 0 hr 7 min 56 sec) 
Heartbeat CPU  0 instructions:  231000002 cycles:  159450455 heartbeat IPC: 1.42754 cumulative IPC: 1.12815 (Simulation time: 0 hr 7 min 59 sec) 
Heartbeat CPU  0 instructions:  232000000 cycles:  160098354 heartbeat IPC: 1.54345 cumulative IPC: 1.13045 (Simulation time: 0 hr 8 min 1 sec) 
Heartbeat CPU  0 instructions:  233000002 cycles:  161121158 heartbeat IPC: 0.97771 cumulative IPC: 1.12913 (Simulation time: 0 hr 8 min 3 sec) 
Heartbeat CPU  0 instructions:  234000002 cycles:  162216548 heartbeat IPC: 0.91292 cumulative IPC: 1.12713 (Simulation time: 0 hr 8 min 5 sec) 
Heartbeat CPU  0 instructions:  235000000 cycles:  163022188 heartbeat IPC: 1.24125 cumulative IPC: 1.12790 (Simulation time: 0 hr 8 min 8 sec) 
Heartbeat CPU  0 instructions:  236000000 cycles:  163675272 heartbeat IPC: 1.53120 cumulative IPC: 1.13009 (Simulation time: 0 hr 8 min 10 sec) 
Heartbeat CPU  0 instructions:  237000003 cycles:  164505454 heartbeat IPC: 1.20456 cumulative IPC: 1.13060 (Simulation time: 0 hr 8 min 12 sec) 
Heartbeat CPU  0 instructions:  238000000 cycles:  165543909 heartbeat IPC: 0.96297 cumulative IPC: 1.12918 (Simulation time: 0 hr 8 min 15 sec) 
Heartbeat CPU  0 instructions:  239000000 cycles:  166545684 heartbeat IPC: 0.99823 cumulative IPC: 1.12811 (Simulation time: 0 hr 8 min 17 sec) 
Heartbeat CPU  0 instructions:  240000000 cycles:  167249453 heartbeat IPC: 1.42092 cumulative IPC: 1.12977 (Simulation time: 0 hr 8 min 19 sec) 
Heartbeat CPU  0 instructions:  241000000 cycles:  167892452 heartbeat IPC: 1.55521 cumulative IPC: 1.13197 (Simulation time: 0 hr 8 min 21 sec) 
Heartbeat CPU  0 instructions:  242000002 cycles:  168908569 heartbeat IPC: 0.98414 cumulative IPC: 1.13077 (Simulation time: 0 hr 8 min 24 sec) 
Heartbeat CPU  0 instructions:  243000001 cycles:  169998355 heartbeat IPC: 0.91761 cumulative IPC: 1.12894 (Simulation time: 0 hr 8 min 26 sec) 
Heartbeat CPU  0 instructions:  244000000 cycles:  170819239 heartbeat IPC: 1.21820 cumulative IPC: 1.12951 (Simulation time: 0 hr 8 min 28 sec) 
Heartbeat CPU  0 instructions:  245000001 cycles:  171478720 heartbeat IPC: 1.51635 cumulative IPC: 1.13151 (Simulation time: 0 hr 8 min 30 sec) 
Heartbeat CPU  0 instructions:  246000000 cycles:  172305530 heartbeat IPC: 1.20947 cumulative IPC: 1.13200 (Simulation time: 0 hr 8 min 33 sec) 
Heartbeat CPU  0 instructions:  247000001 cycles:  173341783 heartbeat IPC: 0.96502 cumulative IPC: 1.13067 (Simulation time: 0 hr 8 min 35 sec) 
Heartbeat CPU  0 instructions:  248000000 cycles:  174356780 heartbeat IPC: 0.98522 cumulative IPC: 1.12955 (Simulation time: 0 hr 8 min 37 sec) 
Heartbeat CPU  0 instructions:  249000003 cycles:  175072309 heartbeat IPC: 1.39757 cumulative IPC: 1.13100 (Simulation time: 0 hr 8 min 40 sec) 
Heartbeat CPU  0 instructions:  250000003 cycles:  175718068 heartbeat IPC: 1.54857 cumulative IPC: 1.13304 (Simulation time: 0 hr 8 min 42 sec) 
Heartbeat CPU  0 instructions:  251000002 cycles:  176749198 heartbeat IPC: 0.96981 cumulative IPC: 1.13178 (Simulation time: 0 hr 8 min 44 sec) 
Heartbeat CPU  0 instructions:  252000000 cycles:  177849146 heartbeat IPC: 0.90913 cumulative IPC: 1.12996 (Simulation time: 0 hr 8 min 47 sec) 
Heartbeat CPU  0 instructions:  253000002 cycles:  178663959 heartbeat IPC: 1.22728 cumulative IPC: 1.13054 (Simulation time: 0 hr 8 min 49 sec) 
Heartbeat CPU  0 instructions:  254000003 cycles:  179315593 heartbeat IPC: 1.53461 cumulative IPC: 1.13248 (Simulation time: 0 hr 8 min 51 sec) 
Heartbeat CPU  0 instructions:  255000002 cycles:  180153668 heartbeat IPC: 1.19321 cumulative IPC: 1.13285 (Simulation time: 0 hr 8 min 53 sec) 
Heartbeat CPU  0 instructions:  256000000 cycles:  181204434 heartbeat IPC: 0.95168 cumulative IPC: 1.13147 (Simulation time: 0 hr 8 min 56 sec) 
Heartbeat CPU  0 instructions:  257000001 cycles:  182205868 heartbeat IPC: 0.99857 cumulative IPC: 1.13051 (Simulation time: 0 hr 8 min 58 sec) 
Heartbeat CPU  0 instructions:  258000000 cycles:  182905787 heartbeat IPC: 1.42874 cumulative IPC: 1.13201 (Simulation time: 0 hr 9 min 0 sec) 
Heartbeat CPU  0 instructions:  259000000 cycles:  183551686 heartbeat IPC: 1.54823 cumulative IPC: 1.13393 (Simulation time: 0 hr 9 min 2 sec) 
Heartbeat CPU  0 instructions:  260000000 cycles:  184603979 heartbeat IPC: 0.95031 cumulative IPC: 1.13256 (Simulation time: 0 hr 9 min 5 sec) 
Heartbeat CPU  0 instructions:  261000003 cycles:  185683136 heartbeat IPC: 0.92665 cumulative IPC: 1.13100 (Simulation time: 0 hr 9 min 7 sec) 
Heartbeat CPU  0 instructions:  262000001 cycles:  186487290 heartbeat IPC: 1.24354 cumulative IPC: 1.13163 (Simulation time: 0 hr 9 min 9 sec) 
Heartbeat CPU  0 instructions:  263000002 cycles:  187139647 heartbeat IPC: 1.53290 cumulative IPC: 1.13345 (Simulation time: 0 hr 9 min 12 sec) 
Heartbeat CPU  0 instructions:  264000000 cycles:  188006078 heartbeat IPC: 1.15416 cumulative IPC: 1.13357 (Simulation time: 0 hr 9 min 14 sec) 
Heartbeat CPU  0 instructions:  265000000 cycles:  189117908 heartbeat IPC: 0.89942 cumulative IPC: 1.13179 (Simulation time: 0 hr 9 min 16 sec) 
Heartbeat CPU  0 instructions:  266000000 cycles:  190133454 heartbeat IPC: 0.98469 cumulative IPC: 1.13077 (Simulation time: 0 hr 9 min 18 sec) 
Heartbeat CPU  0 instructions:  267000002 cycles:  190988981 heartbeat IPC: 1.16887 cumulative IPC: 1.13099 (Simulation time: 0 hr 9 min 21 sec) 
Heartbeat CPU  0 instructions:  268000000 cycles:  191680156 heartbeat IPC: 1.44681 cumulative IPC: 1.13246 (Simulation time: 0 hr 9 min 23 sec) 
Heartbeat CPU  0 instructions:  269000002 cycles:  192325300 heartbeat IPC: 1.55004 cumulative IPC: 1.13427 (Simulation time: 0 hr 9 min 25 sec) 
Heartbeat CPU  0 instructions:  270000003 cycles:  193725845 heartbeat IPC: 0.71401 cumulative IPC: 1.13036 (Simulation time: 0 hr 9 min 28 sec) 
Heartbeat CPU  0 instructions:  271000001 cycles:  194664489 heartbeat IPC: 1.06536 cumulative IPC: 1.12995 (Simulation time: 0 hr 9 min 30 sec) 
Heartbeat CPU  0 instructions:  272000000 cycles:  195330733 heartbeat IPC: 1.50095 cumulative IPC: 1.13158 (Simulation time: 0 hr 9 min 32 sec) 
Heartbeat CPU  0 instructions:  273000001 cycles:  196049845 heartbeat IPC: 1.39061 cumulative IPC: 1.13280 (Simulation time: 0 hr 9 min 34 sec) 
Heartbeat CPU  0 instructions:  274000000 cycles:  197471396 heartbeat IPC: 0.70346 cumulative IPC: 1.12884 (Simulation time: 0 hr 9 min 37 sec) 
Heartbeat CPU  0 instructions:  275000003 cycles:  198300609 heartbeat IPC: 1.20597 cumulative IPC: 1.12925 (Simulation time: 0 hr 9 min 39 sec) 
Heartbeat CPU  0 instructions:  276000000 cycles:  198958668 heartbeat IPC: 1.51962 cumulative IPC: 1.13090 (Simulation time: 0 hr 9 min 41 sec) 
Heartbeat CPU  0 instructions:  277000001 cycles:  199850365 heartbeat IPC: 1.12146 cumulative IPC: 1.13085 (Simulation time: 0 hr 9 min 44 sec) 
Heartbeat CPU  0 instructions:  278000002 cycles:  201146107 heartbeat IPC: 0.77176 cumulative IPC: 1.12790 (Simulation time: 0 hr 9 min 46 sec) 
Heartbeat CPU  0 instructions:  279000003 cycles:  201938916 heartbeat IPC: 1.26134 cumulative IPC: 1.12857 (Simulation time: 0 hr 9 min 48 sec) 
Heartbeat CPU  0 instructions:  280000000 cycles:  202590496 heartbeat IPC: 1.53473 cumulative IPC: 1.13023 (Simulation time: 0 hr 9 min 51 sec) 
Heartbeat CPU  0 instructions:  281000003 cycles:  203535668 heartbeat IPC: 1.05801 cumulative IPC: 1.12980 (Simulation time: 0 hr 9 min 53 sec) 
Heartbeat CPU  0 instructions:  282000001 cycles:  204805707 heartbeat IPC: 0.78738 cumulative IPC: 1.12711 (Simulation time: 0 hr 9 min 55 sec) 
Heartbeat CPU  0 instructions:  283000003 cycles:  205594311 heartbeat IPC: 1.26807 cumulative IPC: 1.12780 (Simulation time: 0 hr 9 min 58 sec) 
Heartbeat CPU  0 instructions:  284000000 cycles:  206246701 heartbeat IPC: 1.53282 cumulative IPC: 1.12942 (Simulation time: 0 hr 10 min 0 sec) 
Heartbeat CPU  0 instructions:  285000002 cycles:  207347453 heartbeat IPC: 0.90847 cumulative IPC: 1.12793 (Simulation time: 0 hr 10 min 2 sec) 
Heartbeat CPU  0 instructions:  286000002 cycles:  208856730 heartbeat IPC: 0.66257 cumulative IPC: 1.12369 (Simulation time: 0 hr 10 min 5 sec) 
Heartbeat CPU  0 instructions:  287000003 cycles:  209794260 heartbeat IPC: 1.06663 cumulative IPC: 1.12337 (Simulation time: 0 hr 10 min 7 sec) 
Heartbeat CPU  0 instructions:  288000000 cycles:  210448953 heartbeat IPC: 1.52743 cumulative IPC: 1.12495 (Simulation time: 0 hr 10 min 9 sec) 
Heartbeat CPU  0 instructions:  289000001 cycles:  211292209 heartbeat IPC: 1.18588 cumulative IPC: 1.12526 (Simulation time: 0 hr 10 min 11 sec) 
Heartbeat CPU  0 instructions:  290000001 cycles:  212615132 heartbeat IPC: 0.75590 cumulative IPC: 1.12237 (Simulation time: 0 hr 10 min 14 sec) 
Heartbeat CPU  0 instructions:  291000003 cycles:  214025266 heartbeat IPC: 0.70915 cumulative IPC: 1.11896 (Simulation time: 0 hr 10 min 16 sec) 
Heartbeat CPU  0 instructions:  292000000 cycles:  215197582 heartbeat IPC: 0.85301 cumulative IPC: 1.11714 (Simulation time: 0 hr 10 min 19 sec) 
Heartbeat CPU  0 instructions:  293000001 cycles:  215917051 heartbeat IPC: 1.38992 cumulative IPC: 1.11828 (Simulation time: 0 hr 10 min 21 sec) 
Heartbeat CPU  0 instructions:  294000002 cycles:  216562360 heartbeat IPC: 1.54965 cumulative IPC: 1.11989 (Simulation time: 0 hr 10 min 23 sec) 
Heartbeat CPU  0 instructions:  295000003 cycles:  217655924 heartbeat IPC: 0.91444 cumulative IPC: 1.11860 (Simulation time: 0 hr 10 min 25 sec) 
Heartbeat CPU  0 instructions:  296000000 cycles:  218761857 heartbeat IPC: 0.90421 cumulative IPC: 1.11725 (Simulation time: 0 hr 10 min 28 sec) 
Heartbeat CPU  0 instructions:  297000002 cycles:  219874166 heartbeat IPC: 0.89903 cumulative IPC: 1.11587 (Simulation time: 0 hr 10 min 30 sec) 
Heartbeat CPU  0 instructions:  298000003 cycles:  221062128 heartbeat IPC: 0.84178 cumulative IPC: 1.11404 (Simulation time: 0 hr 10 min 32 sec) 
Heartbeat CPU  0 instructions:  299000001 cycles:  221987588 heartbeat IPC: 1.08054 cumulative IPC: 1.11387 (Simulation time: 0 hr 10 min 35 sec) 
Heartbeat CPU  0 instructions:  300000000 cycles:  222641858 heartbeat IPC: 1.52842 cumulative IPC: 1.11538 (Simulation time: 0 hr 10 min 37 sec) 
Heartbeat CPU  0 instructions:  301000000 cycles:  223591042 heartbeat IPC: 1.05354 cumulative IPC: 1.11505 (Simulation time: 0 hr 10 min 39 sec) 
Heartbeat CPU  0 instructions:  302000001 cycles:  224682239 heartbeat IPC: 0.91643 cumulative IPC: 1.11386 (Simulation time: 0 hr 10 min 42 sec) 
Heartbeat CPU  0 instructions:  303000003 cycles:  225768526 heartbeat IPC: 0.92057 cumulative IPC: 1.11271 (Simulation time: 0 hr 10 min 44 sec) 
Heartbeat CPU  0 instructions:  304000000 cycles:  226895116 heartbeat IPC: 0.88763 cumulative IPC: 1.11133 (Simulation time: 0 hr 10 min 46 sec) 
Heartbeat CPU  0 instructions:  305000000 cycles:  228169457 heartbeat IPC: 0.78472 cumulative IPC: 1.10908 (Simulation time: 0 hr 10 min 49 sec) 
Heartbeat CPU  0 instructions:  306000002 cycles:  229073908 heartbeat IPC: 1.10565 cumulative IPC: 1.10906 (Simulation time: 0 hr 10 min 51 sec) 
Heartbeat CPU  0 instructions:  307000001 cycles:  229725954 heartbeat IPC: 1.53363 cumulative IPC: 1.11054 (Simulation time: 0 hr 10 min 53 sec) 
Heartbeat CPU  0 instructions:  308000000 cycles:  230602464 heartbeat IPC: 1.14089 cumulative IPC: 1.11069 (Simulation time: 0 hr 10 min 56 sec) 
Heartbeat CPU  0 instructions:  309000002 cycles:  231722287 heartbeat IPC: 0.89300 cumulative IPC: 1.10939 (Simulation time: 0 hr 10 min 58 sec) 
Heartbeat CPU  0 instructions:  310000002 cycles:  232776687 heartbeat IPC: 0.94841 cumulative IPC: 1.10850 (Simulation time: 0 hr 11 min 1 sec) 
Heartbeat CPU  0 instructions:  311000002 cycles:  233922729 heartbeat IPC: 0.87257 cumulative IPC: 1.10708 (Simulation time: 0 hr 11 min 3 sec) 
Heartbeat CPU  0 instructions:  312000000 cycles:  235167813 heartbeat IPC: 0.80316 cumulative IPC: 1.10511 (Simulation time: 0 hr 11 min 5 sec) 
Heartbeat CPU  0 instructions:  313000003 cycles:  236010127 heartbeat IPC: 1.18721 cumulative IPC: 1.10546 (Simulation time: 0 hr 11 min 8 sec) 
Heartbeat CPU  0 instructions:  314000002 cycles:  236663604 heartbeat IPC: 1.53027 cumulative IPC: 1.10690 (Simulation time: 0 hr 11 min 10 sec) 
Heartbeat CPU  0 instructions:  315000003 cycles:  237600229 heartbeat IPC: 1.06766 cumulative IPC: 1.10671 (Simulation time: 0 hr 11 min 12 sec) 
Heartbeat CPU  0 instructions:  316000000 cycles:  238735349 heartbeat IPC: 0.88096 cumulative IPC: 1.10540 (Simulation time: 0 hr 11 min 15 sec) 
Heartbeat CPU  0 instructions:  317000002 cycles:  240001901 heartbeat IPC: 0.78955 cumulative IPC: 1.10337 (Simulation time: 0 hr 11 min 17 sec) 
Heartbeat CPU  0 instructions:  318000001 cycles:  241248450 heartbeat IPC: 0.80221 cumulative IPC: 1.10147 (Simulation time: 0 hr 11 min 20 sec) 
Heartbeat CPU  0 instructions:  319000002 cycles:  242125542 heartbeat IPC: 1.14013 cumulative IPC: 1.10164 (Simulation time: 0 hr 11 min 22 sec) 
Heartbeat CPU  0 instructions:  320000000 cycles:  242784641 heartbeat IPC: 1.51722 cumulative IPC: 1.10301 (Simulation time: 0 hr 11 min 24 sec) 
Heartbeat CPU  0 instructions:  321000000 cycles:  243764264 heartbeat IPC: 1.02080 cumulative IPC: 1.10261 (Simulation time: 0 hr 11 min 27 sec) 
Heartbeat CPU  0 instructions:  322000001 cycles:  244979487 heartbeat IPC: 0.82290 cumulative IPC: 1.10092 (Simulation time: 0 hr 11 min 29 sec) 
Heartbeat CPU  0 instructions:  323000000 cycles:  246271228 heartbeat IPC: 0.77415 cumulative IPC: 1.09884 (Simulation time: 0 hr 11 min 32 sec) 
Heartbeat CPU  0 instructions:  324000000 cycles:  247678015 heartbeat IPC: 0.71084 cumulative IPC: 1.09617 (Simulation time: 0 hr 11 min 34 sec) 
Heartbeat CPU  0 instructions:  325000000 cycles:  248560707 heartbeat IPC: 1.13290 cumulative IPC: 1.09633 (Simulation time: 0 hr 11 min 36 sec) 
Heartbeat CPU  0 instructions:  326000000 cycles:  249218096 heartbeat IPC: 1.52117 cumulative IPC: 1.09769 (Simulation time: 0 hr 11 min 39 sec) 
Heartbeat CPU  0 instructions:  327000001 cycles:  250057860 heartbeat IPC: 1.19081 cumulative IPC: 1.09807 (Simulation time: 0 hr 11 min 41 sec) 
Heartbeat CPU  0 instructions:  328000000 cycles:  251280659 heartbeat IPC: 0.81780 cumulative IPC: 1.09642 (Simulation time: 0 hr 11 min 43 sec) 
Heartbeat CPU  0 instructions:  329000000 cycles:  252515903 heartbeat IPC: 0.80956 cumulative IPC: 1.09472 (Simulation time: 0 hr 11 min 46 sec) 
Heartbeat CPU  0 instructions:  330000000 cycles:  253831844 heartbeat IPC: 0.75991 cumulative IPC: 1.09263 (Simulation time: 0 hr 11 min 48 sec) 
Heartbeat CPU  0 instructions:  331000003 cycles:  254690595 heartbeat IPC: 1.16449 cumulative IPC: 1.09292 (Simulation time: 0 hr 11 min 51 sec) 
Heartbeat CPU  0 instructions:  332000000 cycles:  255344112 heartbeat IPC: 1.53018 cumulative IPC: 1.09427 (Simulation time: 0 hr 11 min 53 sec) 
Heartbeat CPU  0 instructions:  333000000 cycles:  256211593 heartbeat IPC: 1.15276 cumulative IPC: 1.09451 (Simulation time: 0 hr 11 min 55 sec) 
Heartbeat CPU  0 instructions:  334000002 cycles:  257501593 heartbeat IPC: 0.77520 cumulative IPC: 1.09259 (Simulation time: 0 hr 11 min 58 sec) 
Heartbeat CPU  0 instructions:  335000002 cycles:  258833396 heartbeat IPC: 0.75086 cumulative IPC: 1.09047 (Simulation time: 0 hr 12 min 0 sec) 
Heartbeat CPU  0 instructions:  336000000 cycles:  260024717 heartbeat IPC: 0.83940 cumulative IPC: 1.08909 (Simulation time: 0 hr 12 min 3 sec) 
Heartbeat CPU  0 instructions:  337000003 cycles:  260888974 heartbeat IPC: 1.15707 cumulative IPC: 1.08936 (Simulation time: 0 hr 12 min 5 sec) 
Heartbeat CPU  0 instructions:  338000000 cycles:  261624148 heartbeat IPC: 1.36022 cumulative IPC: 1.09028 (Simulation time: 0 hr 12 min 7 sec) 
Heartbeat CPU  0 instructions:  339000001 cycles:  262268845 heartbeat IPC: 1.55112 cumulative IPC: 1.09163 (Simulation time: 0 hr 12 min 9 sec) 
Heartbeat CPU  0 instructions:  340000000 cycles:  263480315 heartbeat IPC: 0.82544 cumulative IPC: 1.09017 (Simulation time: 0 hr 12 min 12 sec) 
Heartbeat CPU  0 instructions:  341000000 cycles:  264803302 heartbeat IPC: 0.75587 cumulative IPC: 1.08817 (Simulation time: 0 hr 12 min 14 sec) 
Heartbeat CPU  0 instructions:  342000001 cycles:  265985601 heartbeat IPC: 0.84581 cumulative IPC: 1.08688 (Simulation time: 0 hr 12 min 17 sec) 
Heartbeat CPU  0 instructions:  343000001 cycles:  266765010 heartbeat IPC: 1.28302 cumulative IPC: 1.08757 (Simulation time: 0 hr 12 min 19 sec) 
Heartbeat CPU  0 instructions:  344000000 cycles:  267418513 heartbeat IPC: 1.53021 cumulative IPC: 1.08886 (Simulation time: 0 hr 12 min 21 sec) 
Heartbeat CPU  0 instructions:  345000002 cycles:  268507313 heartbeat IPC: 0.91844 cumulative IPC: 1.08804 (Simulation time: 0 hr 12 min 24 sec) 
Heartbeat CPU  0 instructions:  346000000 cycles:  269792975 heartbeat IPC: 0.77781 cumulative IPC: 1.08627 (Simulation time: 0 hr 12 min 26 sec) 
Heartbeat CPU  0 instructions:  347000000 cycles:  271092384 heartbeat IPC: 0.76958 cumulative IPC: 1.08447 (Simulation time: 0 hr 12 min 29 sec) 
Heartbeat CPU  0 instructions:  348000000 cycles:  271901013 heartbeat IPC: 1.23666 cumulative IPC: 1.08501 (Simulation time: 0 hr 12 min 31 sec) 
Heartbeat CPU  0 instructions:  349000003 cycles:  272554489 heartbeat IPC: 1.53028 cumulative IPC: 1.08628 (Simulation time: 0 hr 12 min 33 sec) 
Heartbeat CPU  0 instructions:  350000000 cycles:  273467526 heartbeat IPC: 1.09524 cumulative IPC: 1.08631 (Simulation time: 0 hr 12 min 36 sec) 
Heartbeat CPU  0 instructions:  351000000 cycles:  274730869 heartbeat IPC: 0.79155 cumulative IPC: 1.08470 (Simulation time: 0 hr 12 min 38 sec) 
Heartbeat CPU  0 instructions:  352000000 cycles:  275953698 heartbeat IPC: 0.81778 cumulative IPC: 1.08330 (Simulation time: 0 hr 12 min 41 sec) 
Heartbeat CPU  0 instructions:  353000001 cycles:  276752788 heartbeat IPC: 1.25142 cumulative IPC: 1.08387 (Simulation time: 0 hr 12 min 43 sec) 
Heartbeat CPU  0 instructions:  354000000 cycles:  277415689 heartbeat IPC: 1.50852 cumulative IPC: 1.08508 (Simulation time: 0 hr 12 min 45 sec) 
Heartbeat CPU  0 instructions:  355000002 cycles:  278361660 heartbeat IPC: 1.05712 cumulative IPC: 1.08496 (Simulation time: 0 hr 12 min 48 sec) 
Heartbeat CPU  0 instructions:  356000000 cycles:  279584982 heartbeat IPC: 0.81744 cumulative IPC: 1.08358 (Simulation time: 0 hr 12 min 50 sec) 
Heartbeat CPU  0 instructions:  357000000 cycles:  280794202 heartbeat IPC: 0.82698 cumulative IPC: 1.08227 (Simulation time: 0 hr 12 min 52 sec) 
Heartbeat CPU  0 instructions:  358000002 cycles:  281648755 heartbeat IPC: 1.17020 cumulative IPC: 1.08259 (Simulation time: 0 hr 12 min 55 sec) 
Heartbeat CPU  0 instructions:  359000000 cycles:  282304067 heartbeat IPC: 1.52599 cumulative IPC: 1.08380 (Simulation time: 0 hr 12 min 57 sec) 
Heartbeat CPU  0 instructions:  360000000 cycles:  283197662 heartbeat IPC: 1.11908 cumulative IPC: 1.08393 (Simulation time: 0 hr 12 min 59 sec) 
Heartbeat CPU  0 instructions:  361000002 cycles:  284356009 heartbeat IPC: 0.86330 cumulative IPC: 1.08287 (Simulation time: 0 hr 13 min 2 sec) 
Heartbeat CPU  0 instructions:  362000001 cycles:  285529116 heartbeat IPC: 0.85244 cumulative IPC: 1.08176 (Simulation time: 0 hr 13 min 4 sec) 
Heartbeat CPU  0 instructions:  363000002 cycles:  286609524 heartbeat IPC: 0.92558 cumulative IPC: 1.08106 (Simulation time: 0 hr 13 min 7 sec) 
Heartbeat CPU  0 instructions:  364000000 cycles:  287400745 heartbeat IPC: 1.26387 cumulative IPC: 1.08166 (Simulation time: 0 hr 13 min 9 sec) 
Heartbeat CPU  0 instructions:  365000002 cycles:  288054012 heartbeat IPC: 1.53077 cumulative IPC: 1.08286 (Simulation time: 0 hr 13 min 11 sec) 
Heartbeat CPU  0 instructions:  366000000 cycles:  289207441 heartbeat IPC: 0.86698 cumulative IPC: 1.08184 (Simulation time: 0 hr 13 min 14 sec) 
Heartbeat CPU  0 instructions:  367000000 cycles:  290554504 heartbeat IPC: 0.74236 cumulative IPC: 1.07999 (Simulation time: 0 hr 13 min 16 sec) 
Heartbeat CPU  0 instructions:  368000000 cycles:  291790429 heartbeat IPC: 0.80911 cumulative IPC: 1.07865 (Simulation time: 0 hr 13 min 18 sec) 
Heartbeat CPU  0 instructions:  369000001 cycles:  292605800 heartbeat IPC: 1.22644 cumulative IPC: 1.07913 (Simulation time: 0 hr 13 min 21 sec) 
Heartbeat CPU  0 instructions:  370000002 cycles:  293259535 heartbeat IPC: 1.52967 cumulative IPC: 1.08031 (Simulation time: 0 hr 13 min 23 sec) 
Heartbeat CPU  0 instructions:  371000000 cycles:  294418471 heartbeat IPC: 0.86286 cumulative IPC: 1.07930 (Simulation time: 0 hr 13 min 26 sec) 
Heartbeat CPU  0 instructions:  372000000 cycles:  295979773 heartbeat IPC: 0.64049 cumulative IPC: 1.07659 (Simulation time: 0 hr 13 min 28 sec) 
Heartbeat CPU  0 instructions:  373000001 cycles:  297060589 heartbeat IPC: 0.92523 cumulative IPC: 1.07595 (Simulation time: 0 hr 13 min 30 sec) 
Heartbeat CPU  0 instructions:  374000001 cycles:  297757060 heartbeat IPC: 1.43581 cumulative IPC: 1.07693 (Simulation time: 0 hr 13 min 33 sec) 
Heartbeat CPU  0 instructions:  375000000 cycles:  298401719 heartbeat IPC: 1.55121 cumulative IPC: 1.07813 (Simulation time: 0 hr 13 min 35 sec) 
Heartbeat CPU  0 instructions:  376000000 cycles:  299900964 heartbeat IPC: 0.66700 cumulative IPC: 1.07573 (Simulation time: 0 hr 13 min 38 sec) 
Heartbeat CPU  0 instructions:  377000001 cycles:  301351165 heartbeat IPC: 0.68956 cumulative IPC: 1.07356 (Simulation time: 0 hr 13 min 40 sec) 
Heartbeat CPU  0 instructions:  378000002 cycles:  302185244 heartbeat IPC: 1.19893 cumulative IPC: 1.07396 (Simulation time: 0 hr 13 min 42 sec) 
Heartbeat CPU  0 instructions:  379000001 cycles:  302837391 heartbeat IPC: 1.53340 cumulative IPC: 1.07512 (Simulation time: 0 hr 13 min 45 sec) 
Heartbeat CPU  0 instructions:  380000000 cycles:  303789435 heartbeat IPC: 1.05037 cumulative IPC: 1.07503 (Simulation time: 0 hr 13 min 47 sec) 
Heartbeat CPU  0 instructions:  381000001 cycles:  305225236 heartbeat IPC: 0.69648 cumulative IPC: 1.07295 (Simulation time: 0 hr 13 min 50 sec) 
Heartbeat CPU  0 instructions:  382000001 cycles:  306476754 heartbeat IPC: 0.79903 cumulative IPC: 1.07165 (Simulation time: 0 hr 13 min 52 sec) 
Heartbeat CPU  0 instructions:  383000000 cycles:  307271990 heartbeat IPC: 1.25749 cumulative IPC: 1.07221 (Simulation time: 0 hr 13 min 54 sec) 
Heartbeat CPU  0 instructions:  384000000 cycles:  307921399 heartbeat IPC: 1.53986 cumulative IPC: 1.07336 (Simulation time: 0 hr 13 min 57 sec) 
Heartbeat CPU  0 instructions:  385000000 cycles:  309188110 heartbeat IPC: 0.78945 cumulative IPC: 1.07200 (Simulation time: 0 hr 13 min 59 sec) 
Heartbeat CPU  0 instructions:  386000000 cycles:  310811933 heartbeat IPC: 0.61583 cumulative IPC: 1.06923 (Simulation time: 0 hr 14 min 2 sec) 
Heartbeat CPU  0 instructions:  387000000 cycles:  311960591 heartbeat IPC: 0.87058 cumulative IPC: 1.06839 (Simulation time: 0 hr 14 min 4 sec) 
Heartbeat CPU  0 instructions:  388000000 cycles:  312675269 heartbeat IPC: 1.39923 cumulative IPC: 1.06926 (Simulation time: 0 hr 14 min 6 sec) 
Heartbeat CPU  0 instructions:  389000000 cycles:  313319195 heartbeat IPC: 1.55297 cumulative IPC: 1.07042 (Simulation time: 0 hr 14 min 9 sec) 
Heartbeat CPU  0 instructions:  390000003 cycles:  314816344 heartbeat IPC: 0.66794 cumulative IPC: 1.06820 (Simulation time: 0 hr 14 min 11 sec) 
Heartbeat CPU  0 instructions:  391000003 cycles:  316405177 heartbeat IPC: 0.62939 cumulative IPC: 1.06564 (Simulation time: 0 hr 14 min 14 sec) 
Heartbeat CPU  0 instructions:  392000000 cycles:  317317762 heartbeat IPC: 1.09579 cumulative IPC: 1.06574 (Simulation time: 0 hr 14 min 16 sec) 
Heartbeat CPU  0 instructions:  393000001 cycles:  317972714 heartbeat IPC: 1.52683 cumulative IPC: 1.06684 (Simulation time: 0 hr 14 min 19 sec) 
Heartbeat CPU  0 instructions:  394000002 cycles:  318879231 heartbeat IPC: 1.10312 cumulative IPC: 1.06696 (Simulation time: 0 hr 14 min 21 sec) 
Heartbeat CPU  0 instructions:  395000002 cycles:  320371615 heartbeat IPC: 0.67007 cumulative IPC: 1.06483 (Simulation time: 0 hr 14 min 23 sec) 
Heartbeat CPU  0 instructions:  396000000 cycles:  321838876 heartbeat IPC: 0.68154 cumulative IPC: 1.06281 (Simulation time: 0 hr 14 min 26 sec) 
Heartbeat CPU  0 instructions:  397000000 cycles:  322753178 heartbeat IPC: 1.09373 cumulative IPC: 1.06291 (Simulation time: 0 hr 14 min 28 sec) 
Heartbeat CPU  0 instructions:  398000001 cycles:  323566862 heartbeat IPC: 1.22898 cumulative IPC: 1.06339 (Simulation time: 0 hr 14 min 31 sec) 
Heartbeat CPU  0 instructions:  399000000 cycles:  324219516 heartbeat IPC: 1.53220 cumulative IPC: 1.06448 (Simulation time: 0 hr 14 min 33 sec) 
Heartbeat CPU  0 instructions:  400000000 cycles:  325144878 heartbeat IPC: 1.08066 cumulative IPC: 1.06453 (Simulation time: 0 hr 14 min 35 sec) 
Heartbeat CPU  0 instructions:  401000002 cycles:  326512287 heartbeat IPC: 0.73131 cumulative IPC: 1.06292 (Simulation time: 0 hr 14 min 38 sec) 
Heartbeat CPU  0 instructions:  402000002 cycles:  327827430 heartbeat IPC: 0.76037 cumulative IPC: 1.06152 (Simulation time: 0 hr 14 min 40 sec) 
Heartbeat CPU  0 instructions:  403000002 cycles:  328863210 heartbeat IPC: 0.96546 cumulative IPC: 1.06118 (Simulation time: 0 hr 14 min 43 sec) 
Heartbeat CPU  0 instructions:  404000000 cycles:  329549272 heartbeat IPC: 1.45759 cumulative IPC: 1.06213 (Simulation time: 0 hr 14 min 45 sec) 
Heartbeat CPU  0 instructions:  405000001 cycles:  330241337 heartbeat IPC: 1.44495 cumulative IPC: 1.06305 (Simulation time: 0 hr 14 min 47 sec) 
Heartbeat CPU  0 instructions:  406000003 cycles:  331677010 heartbeat IPC: 0.69654 cumulative IPC: 1.06122 (Simulation time: 0 hr 14 min 50 sec) 
Heartbeat CPU  0 instructions:  407000000 cycles:  333019548 heartbeat IPC: 0.74486 cumulative IPC: 1.05976 (Simulation time: 0 hr 14 min 52 sec) 
Heartbeat CPU  0 instructions:  408000000 cycles:  334127292 heartbeat IPC: 0.90274 cumulative IPC: 1.05916 (Simulation time: 0 hr 14 min 55 sec) 
Heartbeat CPU  0 instructions:  409000001 cycles:  334891350 heartbeat IPC: 1.30880 cumulative IPC: 1.05981 (Simulation time: 0 hr 14 min 57 sec) 
Heartbeat CPU  0 instructions:  410000002 cycles:  335535275 heartbeat IPC: 1.55298 cumulative IPC: 1.06090 (Simulation time: 0 hr 14 min 59 sec) 
Heartbeat CPU  0 instructions:  411000001 cycles:  336831492 heartbeat IPC: 0.77148 cumulative IPC: 1.05962 (Simulation time: 0 hr 15 min 2 sec) 
Heartbeat CPU  0 instructions:  412000000 cycles:  338293132 heartbeat IPC: 0.68416 cumulative IPC: 1.05776 (Simulation time: 0 hr 15 min 4 sec) 
Heartbeat CPU  0 instructions:  413000001 cycles:  339461899 heartbeat IPC: 0.85560 cumulative IPC: 1.05696 (Simulation time: 0 hr 15 min 7 sec) 
Heartbeat CPU  0 instructions:  414000001 cycles:  340255129 heartbeat IPC: 1.26067 cumulative IPC: 1.05751 (Simulation time: 0 hr 15 min 9 sec) 
Heartbeat CPU  0 instructions:  415000000 cycles:  340904577 heartbeat IPC: 1.53977 cumulative IPC: 1.05856 (Simulation time: 0 hr 15 min 11 sec) 
Heartbeat CPU  0 instructions:  416000000 cycles:  342065351 heartbeat IPC: 0.86149 cumulative IPC: 1.05780 (Simulation time: 0 hr 15 min 14 sec) 
Heartbeat CPU  0 instructions:  417000003 cycles:  343394917 heartbeat IPC: 0.75213 cumulative IPC: 1.05644 (Simulation time: 0 hr 15 min 16 sec) 
Heartbeat CPU  0 instructions:  418000001 cycles:  344778327 heartbeat IPC: 0.72285 cumulative IPC: 1.05491 (Simulation time: 0 hr 15 min 19 sec) 
Heartbeat CPU  0 instructions:  419000000 cycles:  345916089 heartbeat IPC: 0.87892 cumulative IPC: 1.05425 (Simulation time: 0 hr 15 min 21 sec) 
Heartbeat CPU  0 instructions:  420000000 cycles:  346684930 heartbeat IPC: 1.30066 cumulative IPC: 1.05487 (Simulation time: 0 hr 15 min 23 sec) 
Heartbeat CPU  0 instructions:  421000001 cycles:  347333852 heartbeat IPC: 1.54102 cumulative IPC: 1.05591 (Simulation time: 0 hr 15 min 26 sec) 
Heartbeat CPU  0 instructions:  422000000 cycles:  348425368 heartbeat IPC: 0.91616 cumulative IPC: 1.05541 (Simulation time: 0 hr 15 min 28 sec) 
Heartbeat CPU  0 instructions:  423000000 cycles:  349559710 heartbeat IPC: 0.88157 cumulative IPC: 1.05477 (Simulation time: 0 hr 15 min 31 sec) 
Heartbeat CPU  0 instructions:  424000000 cycles:  350687992 heartbeat IPC: 0.88630 cumulative IPC: 1.05415 (Simulation time: 0 hr 15 min 33 sec) 
Heartbeat CPU  0 instructions:  425000001 cycles:  351887395 heartbeat IPC: 0.83375 cumulative IPC: 1.05329 (Simulation time: 0 hr 15 min 35 sec) 
Heartbeat CPU  0 instructions:  426000001 cycles:  352825373 heartbeat IPC: 1.06612 cumulative IPC: 1.05333 (Simulation time: 0 hr 15 min 38 sec) 
Heartbeat CPU  0 instructions:  427000000 cycles:  353488698 heartbeat IPC: 1.50756 cumulative IPC: 1.05430 (Simulation time: 0 hr 15 min 40 sec) 
Heartbeat CPU  0 instructions:  428000000 cycles:  354282796 heartbeat IPC: 1.25929 cumulative IPC: 1.05483 (Simulation time: 0 hr 15 min 42 sec) 
Heartbeat CPU  0 instructions:  429000002 cycles:  355428293 heartbeat IPC: 0.87299 cumulative IPC: 1.05416 (Simulation time: 0 hr 15 min 45 sec) 
Heartbeat CPU  0 instructions:  430000001 cycles:  356545039 heartbeat IPC: 0.89546 cumulative IPC: 1.05359 (Simulation time: 0 hr 15 min 47 sec) 
Heartbeat CPU  0 instructions:  431000001 cycles:  357667868 heartbeat IPC: 0.89061 cumulative IPC: 1.05301 (Simulation time: 0 hr 15 min 50 sec) 
Heartbeat CPU  0 instructions:  432000000 cycles:  358781468 heartbeat IPC: 0.89799 cumulative IPC: 1.05246 (Simulation time: 0 hr 15 min 52 sec) 
Heartbeat CPU  0 instructions:  433000003 cycles:  359543017 heartbeat IPC: 1.31312 cumulative IPC: 1.05309 (Simulation time: 0 hr 15 min 54 sec) 
Heartbeat CPU  0 instructions:  434000003 cycles:  360190792 heartbeat IPC: 1.54375 cumulative IPC: 1.05409 (Simulation time: 0 hr 15 min 56 sec) 
Heartbeat CPU  0 instructions:  435000000 cycles:  361230392 heartbeat IPC: 0.96191 cumulative IPC: 1.05379 (Simulation time: 0 hr 15 min 59 sec) 
Heartbeat CPU  0 instructions:  436000000 cycles:  362340775 heartbeat IPC: 0.90059 cumulative IPC: 1.05326 (Simulation time: 0 hr 16 min 1 sec) 
Heartbeat CPU  0 instructions:  437000002 cycles:  363477511 heartbeat IPC: 0.87971 cumulative IPC: 1.05264 (Simulation time: 0 hr 16 min 4 sec) 
Heartbeat CPU  0 instructions:  438000000 cycles:  364564135 heartbeat IPC: 0.92028 cumulative IPC: 1.05219 (Simulation time: 0 hr 16 min 6 sec) 
Heartbeat CPU  0 instructions:  439000002 cycles:  365316178 heartbeat IPC: 1.32971 cumulative IPC: 1.05284 (Simulation time: 0 hr 16 min 8 sec) 
Heartbeat CPU  0 instructions:  440000000 cycles:  365961070 heartbeat IPC: 1.55064 cumulative IPC: 1.05384 (Simulation time: 0 hr 16 min 11 sec) 
Heartbeat CPU  0 instructions:  441000002 cycles:  366985959 heartbeat IPC: 0.97572 cumulative IPC: 1.05359 (Simulation time: 0 hr 16 min 13 sec) 
Heartbeat CPU  0 instructions:  442000000 cycles:  368092505 heartbeat IPC: 0.90371 cumulative IPC: 1.05308 (Simulation time: 0 hr 16 min 15 sec) 
Heartbeat CPU  0 instructions:  443000002 cycles:  369227270 heartbeat IPC: 0.88124 cumulative IPC: 1.05248 (Simulation time: 0 hr 16 min 18 sec) 
Heartbeat CPU  0 instructions:  444000000 cycles:  370319087 heartbeat IPC: 0.91590 cumulative IPC: 1.05203 (Simulation time: 0 hr 16 min 20 sec) 
Heartbeat CPU  0 instructions:  445000000 cycles:  371051734 heartbeat IPC: 1.36491 cumulative IPC: 1.05273 (Simulation time: 0 hr 16 min 22 sec) 
Heartbeat CPU  0 instructions:  446000003 cycles:  371702956 heartbeat IPC: 1.53558 cumulative IPC: 1.05368 (Simulation time: 0 hr 16 min 25 sec) 
Heartbeat CPU  0 instructions:  447000003 cycles:  372767618 heartbeat IPC: 0.93927 cumulative IPC: 1.05331 (Simulation time: 0 hr 16 min 27 sec) 
Heartbeat CPU  0 instructions:  448000000 cycles:  373880879 heartbeat IPC: 0.89826 cumulative IPC: 1.05279 (Simulation time: 0 hr 16 min 30 sec) 
Heartbeat CPU  0 instructions:  449000001 cycles:  374981658 heartbeat IPC: 0.90845 cumulative IPC: 1.05231 (Simulation time: 0 hr 16 min 32 sec) 
Heartbeat CPU  0 instructions:  450000000 cycles:  376144984 heartbeat IPC: 0.85960 cumulative IPC: 1.05164 (Simulation time: 0 hr 16 min 34 sec) 
Heartbeat CPU  0 instructions:  451000003 cycles:  377040410 heartbeat IPC: 1.11679 cumulative IPC: 1.05181 (Simulation time: 0 hr 16 min 37 sec) 
Heartbeat CPU  0 instructions:  452000000 cycles:  377693856 heartbeat IPC: 1.53034 cumulative IPC: 1.05275 (Simulation time: 0 hr 16 min 39 sec) 
Heartbeat CPU  0 instructions:  453000000 cycles:  378497167 heartbeat IPC: 1.24485 cumulative IPC: 1.05321 (Simulation time: 0 hr 16 min 41 sec) 
Heartbeat CPU  0 instructions:  454000002 cycles:  379592552 heartbeat IPC: 0.91292 cumulative IPC: 1.05275 (Simulation time: 0 hr 16 min 44 sec) 
Heartbeat CPU  0 instructions:  455000002 cycles:  380706160 heartbeat IPC: 0.89798 cumulative IPC: 1.05224 (Simulation time: 0 hr 16 min 46 sec) 
Heartbeat CPU  0 instructions:  456000000 cycles:  381787237 heartbeat IPC: 0.92500 cumulative IPC: 1.05183 (Simulation time: 0 hr 16 min 48 sec) 
Heartbeat CPU  0 instructions:  457000003 cycles:  382862031 heartbeat IPC: 0.93041 cumulative IPC: 1.05145 (Simulation time: 0 hr 16 min 51 sec) 
Heartbeat CPU  0 instructions:  458000001 cycles:  383639454 heartbeat IPC: 1.28630 cumulative IPC: 1.05199 (Simulation time: 0 hr 16 min 53 sec) 
Heartbeat CPU  0 instructions:  459000000 cycles:  384291503 heartbeat IPC: 1.53363 cumulative IPC: 1.05291 (Simulation time: 0 hr 16 min 55 sec) 
Heartbeat CPU  0 instructions:  460000000 cycles:  385322573 heartbeat IPC: 0.96987 cumulative IPC: 1.05266 (Simulation time: 0 hr 16 min 58 sec) 
Heartbeat CPU  0 instructions:  461000002 cycles:  386436016 heartbeat IPC: 0.89812 cumulative IPC: 1.05216 (Simulation time: 0 hr 17 min 0 sec) 
Heartbeat CPU  0 instructions:  462000000 cycles:  387522312 heartbeat IPC: 0.92056 cumulative IPC: 1.05174 (Simulation time: 0 hr 17 min 3 sec) 
Heartbeat CPU  0 instructions:  463000003 cycles:  388615794 heartbeat IPC: 0.91451 cumulative IPC: 1.05131 (Simulation time: 0 hr 17 min 5 sec) 
Heartbeat CPU  0 instructions:  464000000 cycles:  389369765 heartbeat IPC: 1.32631 cumulative IPC: 1.05190 (Simulation time: 0 hr 17 min 7 sec) 
Heartbeat CPU  0 instructions:  465000000 cycles:  390015553 heartbeat IPC: 1.54850 cumulative IPC: 1.05283 (Simulation time: 0 hr 17 min 9 sec) 
Heartbeat CPU  0 instructions:  466000002 cycles:  391017228 heartbeat IPC: 0.99833 cumulative IPC: 1.05267 (Simulation time: 0 hr 17 min 12 sec) 
Heartbeat CPU  0 instructions:  467000002 cycles:  392126123 heartbeat IPC: 0.90180 cumulative IPC: 1.05219 (Simulation time: 0 hr 17 min 14 sec) 
Heartbeat CPU  0 instructions:  468000000 cycles:  393270258 heartbeat IPC: 0.87402 cumulative IPC: 1.05161 (Simulation time: 0 hr 17 min 17 sec) 
Heartbeat CPU  0 instructions:  469000001 cycles:  394192587 heartbeat IPC: 1.08421 cumulative IPC: 1.05170 (Simulation time: 0 hr 17 min 19 sec) 
Heartbeat CPU  0 instructions:  470000002 cycles:  394860941 heartbeat IPC: 1.49621 cumulative IPC: 1.05254 (Simulation time: 0 hr 17 min 21 sec) 
Heartbeat CPU  0 instructions:  471000001 cycles:  395609836 heartbeat IPC: 1.33530 cumulative IPC: 1.05314 (Simulation time: 0 hr 17 min 24 sec) 
Heartbeat CPU  0 instructions:  472000000 cycles:  396723122 heartbeat IPC: 0.89824 cumulative IPC: 1.05265 (Simulation time: 0 hr 17 min 26 sec) 
Heartbeat CPU  0 instructions:  473000003 cycles:  397836042 heartbeat IPC: 0.89854 cumulative IPC: 1.05217 (Simulation time: 0 hr 17 min 28 sec) 
Heartbeat CPU  0 instructions:  474000003 cycles:  398924784 heartbeat IPC: 0.91849 cumulative IPC: 1.05176 (Simulation time: 0 hr 17 min 31 sec) 
Heartbeat CPU  0 instructions:  475000003 cycles:  399807856 heartbeat IPC: 1.13241 cumulative IPC: 1.05196 (Simulation time: 0 hr 17 min 33 sec) 
Heartbeat CPU  0 instructions:  476000000 cycles:  400511482 heartbeat IPC: 1.42121 cumulative IPC: 1.05269 (Simulation time: 0 hr 17 min 35 sec) 
Heartbeat CPU  0 instructions:  477000000 cycles:  401155626 heartbeat IPC: 1.55245 cumulative IPC: 1.05359 (Simulation time: 0 hr 17 min 38 sec) 
Heartbeat CPU  0 instructions:  478000002 cycles:  402232426 heartbeat IPC: 0.92868 cumulative IPC: 1.05321 (Simulation time: 0 hr 17 min 40 sec) 
Heartbeat CPU  0 instructions:  479000003 cycles:  403342243 heartbeat IPC: 0.90105 cumulative IPC: 1.05274 (Simulation time: 0 hr 17 min 42 sec) 
Heartbeat CPU  0 instructions:  480000000 cycles:  404426307 heartbeat IPC: 0.92245 cumulative IPC: 1.05235 (Simulation time: 0 hr 17 min 45 sec) 
Heartbeat CPU  0 instructions:  481000002 cycles:  405243291 heartbeat IPC: 1.22402 cumulative IPC: 1.05274 (Simulation time: 0 hr 17 min 47 sec) 
Heartbeat CPU  0 instructions:  482000002 cycles:  405894625 heartbeat IPC: 1.53531 cumulative IPC: 1.05361 (Simulation time: 0 hr 17 min 49 sec) 
Heartbeat CPU  0 instructions:  483000003 cycles:  406840205 heartbeat IPC: 1.05755 cumulative IPC: 1.05362 (Simulation time: 0 hr 17 min 52 sec) 
Heartbeat CPU  0 instructions:  484000000 cycles:  407917082 heartbeat IPC: 0.92861 cumulative IPC: 1.05325 (Simulation time: 0 hr 17 min 54 sec) 
Heartbeat CPU  0 instructions:  485000003 cycles:  409019285 heartbeat IPC: 0.90728 cumulative IPC: 1.05281 (Simulation time: 0 hr 17 min 56 sec) 
Heartbeat CPU  0 instructions:  486000002 cycles:  410158596 heartbeat IPC: 0.87772 cumulative IPC: 1.05226 (Simulation time: 0 hr 17 min 59 sec) 
Heartbeat CPU  0 instructions:  487000002 cycles:  411137679 heartbeat IPC: 1.02136 cumulative IPC: 1.05218 (Simulation time: 0 hr 18 min 1 sec) 
Heartbeat CPU  0 instructions:  488000000 cycles:  411804917 heartbeat IPC: 1.49871 cumulative IPC: 1.05299 (Simulation time: 0 hr 18 min 4 sec) 
Heartbeat CPU  0 instructions:  489000000 cycles:  412556893 heartbeat IPC: 1.32983 cumulative IPC: 1.05356 (Simulation time: 0 hr 18 min 6 sec) 
Heartbeat CPU  0 instructions:  490000000 cycles:  413675521 heartbeat IPC: 0.89395 cumulative IPC: 1.05307 (Simulation time: 0 hr 18 min 8 sec) 
Heartbeat CPU  0 instructions:  491000002 cycles:  414799997 heartbeat IPC: 0.88930 cumulative IPC: 1.05258 (Simulation time: 0 hr 18 min 11 sec) 
Heartbeat CPU  0 instructions:  492000000 cycles:  415951434 heartbeat IPC: 0.86848 cumulative IPC: 1.05201 (Simulation time: 0 hr 18 min 13 sec) 
Heartbeat CPU  0 instructions:  493000002 cycles:  417015498 heartbeat IPC: 0.93979 cumulative IPC: 1.05169 (Simulation time: 0 hr 18 min 15 sec) 
Heartbeat CPU  0 instructions:  494000000 cycles:  417715165 heartbeat IPC: 1.42925 cumulative IPC: 1.05239 (Simulation time: 0 hr 18 min 18 sec) 
Heartbeat CPU  0 instructions:  495000001 cycles:  418359764 heartbeat IPC: 1.55135 cumulative IPC: 1.05325 (Simulation time: 0 hr 18 min 20 sec) 
Heartbeat CPU  0 instructions:  496000000 cycles:  419477035 heartbeat IPC: 0.89504 cumulative IPC: 1.05278 (Simulation time: 0 hr 18 min 22 sec) 
Heartbeat CPU  0 instructions:  497000001 cycles:  420617139 heartbeat IPC: 0.87711 cumulative IPC: 1.05225 (Simulation time: 0 hr 18 min 25 sec) 
Heartbeat CPU  0 instructions:  498000000 cycles:  421755387 heartbeat IPC: 0.87854 cumulative IPC: 1.05173 (Simulation time: 0 hr 18 min 27 sec) 
Heartbeat CPU  0 instructions:  499000002 cycles:  422848186 heartbeat IPC: 0.91508 cumulative IPC: 1.05134 (Simulation time: 0 hr 18 min 30 sec) 
Heartbeat CPU  0 instructions:  500000000 cycles:  423654434 heartbeat IPC: 1.24031 cumulative IPC: 1.05174 (Simulation time: 0 hr 18 min 32 sec) 
Heartbeat CPU  0 instructions:  501000002 cycles:  424304114 heartbeat IPC: 1.53922 cumulative IPC: 1.05257 (Simulation time: 0 hr 18 min 34 sec) 
Heartbeat CPU  0 instructions:  502000000 cycles:  425354836 heartbeat IPC: 0.95172 cumulative IPC: 1.05229 (Simulation time: 0 hr 18 min 37 sec) 
Heartbeat CPU  0 instructions:  503000000 cycles:  426447520 heartbeat IPC: 0.91518 cumulative IPC: 1.05190 (Simulation time: 0 hr 18 min 39 sec) 
Heartbeat CPU  0 instructions:  504000000 cycles:  427590243 heartbeat IPC: 0.87510 cumulative IPC: 1.05137 (Simulation time: 0 hr 18 min 41 sec) 
Heartbeat CPU  0 instructions:  505000000 cycles:  428748853 heartbeat IPC: 0.86310 cumulative IPC: 1.05081 (Simulation time: 0 hr 18 min 44 sec) 
Heartbeat CPU  0 instructions:  506000001 cycles:  429776108 heartbeat IPC: 0.97347 cumulative IPC: 1.05060 (Simulation time: 0 hr 18 min 46 sec) 
Heartbeat CPU  0 instructions:  507000000 cycles:  430436715 heartbeat IPC: 1.51376 cumulative IPC: 1.05139 (Simulation time: 0 hr 18 min 48 sec) 
Heartbeat CPU  0 instructions:  508000000 cycles:  431240721 heartbeat IPC: 1.24377 cumulative IPC: 1.05179 (Simulation time: 0 hr 18 min 51 sec) 
Heartbeat CPU  0 instructions:  509000003 cycles:  432390553 heartbeat IPC: 0.86969 cumulative IPC: 1.05125 (Simulation time: 0 hr 18 min 53 sec) 
Heartbeat CPU  0 instructions:  510000002 cycles:  433485779 heartbeat IPC: 0.91305 cumulative IPC: 1.05086 (Simulation time: 0 hr 18 min 56 sec) 
Heartbeat CPU  0 instructions:  511000001 cycles:  434625173 heartbeat IPC: 0.87766 cumulative IPC: 1.05036 (Simulation time: 0 hr 18 min 58 sec) 
Heartbeat CPU  0 instructions:  512000000 cycles:  435845553 heartbeat IPC: 0.81942 cumulative IPC: 1.04964 (Simulation time: 0 hr 19 min 0 sec) 
Heartbeat CPU  0 instructions:  513000000 cycles:  436734409 heartbeat IPC: 1.12504 cumulative IPC: 1.04981 (Simulation time: 0 hr 19 min 3 sec) 
Heartbeat CPU  0 instructions:  514000000 cycles:  437394974 heartbeat IPC: 1.51386 cumulative IPC: 1.05059 (Simulation time: 0 hr 19 min 5 sec) 
Heartbeat CPU  0 instructions:  515000000 cycles:  438276865 heartbeat IPC: 1.13393 cumulative IPC: 1.05078 (Simulation time: 0 hr 19 min 7 sec) 
Heartbeat CPU  0 instructions:  516000000 cycles:  439397649 heartbeat IPC: 0.89223 cumulative IPC: 1.05033 (Simulation time: 0 hr 19 min 10 sec) 
Heartbeat CPU  0 instructions:  517000000 cycles:  440463553 heartbeat IPC: 0.93817 cumulative IPC: 1.05003 (Simulation time: 0 hr 19 min 12 sec) 
Heartbeat CPU  0 instructions:  518000003 cycles:  441592014 heartbeat IPC: 0.88617 cumulative IPC: 1.04956 (Simulation time: 0 hr 19 min 15 sec) 
Heartbeat CPU  0 instructions:  519000003 cycles:  442768124 heartbeat IPC: 0.85026 cumulative IPC: 1.04898 (Simulation time: 0 hr 19 min 17 sec) 
Heartbeat CPU  0 instructions:  520000000 cycles:  443624933 heartbeat IPC: 1.16712 cumulative IPC: 1.04923 (Simulation time: 0 hr 19 min 19 sec) 
Heartbeat CPU  0 instructions:  521000001 cycles:  444278588 heartbeat IPC: 1.52986 cumulative IPC: 1.05001 (Simulation time: 0 hr 19 min 22 sec) 
Heartbeat CPU  0 instructions:  522000001 cycles:  445212910 heartbeat IPC: 1.07029 cumulative IPC: 1.05006 (Simulation time: 0 hr 19 min 24 sec) 
Heartbeat CPU  0 instructions:  523000000 cycles:  446309430 heartbeat IPC: 0.91198 cumulative IPC: 1.04968 (Simulation time: 0 hr 19 min 26 sec) 
Heartbeat CPU  0 instructions:  524000000 cycles:  447350811 heartbeat IPC: 0.96026 cumulative IPC: 1.04945 (Simulation time: 0 hr 19 min 29 sec) 
Heartbeat CPU  0 instructions:  525000001 cycles:  448493753 heartbeat IPC: 0.87494 cumulative IPC: 1.04896 (Simulation time: 0 hr 19 min 31 sec) 
Heartbeat CPU  0 instructions:  526000002 cycles:  449625094 heartbeat IPC: 0.88391 cumulative IPC: 1.04850 (Simulation time: 0 hr 19 min 34 sec) 
Heartbeat CPU  0 instructions:  527000002 cycles:  450455306 heartbeat IPC: 1.20451 cumulative IPC: 1.04882 (Simulation time: 0 hr 19 min 36 sec) 
Heartbeat CPU  0 instructions:  528000000 cycles:  451107509 heartbeat IPC: 1.53326 cumulative IPC: 1.04959 (Simulation time: 0 hr 19 min 38 sec) 
Heartbeat CPU  0 instructions:  529000003 cycles:  452094647 heartbeat IPC: 1.01303 cumulative IPC: 1.04951 (Simulation time: 0 hr 19 min 41 sec) 
Heartbeat CPU  0 instructions:  530000003 cycles:  453175732 heartbeat IPC: 0.92500 cumulative IPC: 1.04918 (Simulation time: 0 hr 19 min 43 sec) 
Heartbeat CPU  0 instructions:  531000002 cycles:  454232554 heartbeat IPC: 0.94623 cumulative IPC: 1.04891 (Simulation time: 0 hr 19 min 45 sec) 
Heartbeat CPU  0 instructions:  532000000 cycles:  455368775 heartbeat IPC: 0.88011 cumulative IPC: 1.04845 (Simulation time: 0 hr 19 min 48 sec) 
Heartbeat CPU  0 instructions:  533000000 cycles:  456545951 heartbeat IPC: 0.84949 cumulative IPC: 1.04788 (Simulation time: 0 hr 19 min 50 sec) 
[...]
Heartbeat CPU  0 instructions:  487000000 cycles: 2504622308 heartbeat IPC: 0.52132 cumulative IPC: 0.16153 (Simulation time: 0 hr 39 min 31 sec) 
Heartbeat CPU  0 instructions:  488000000 cycles: 2506341319 heartbeat IPC: 0.58173 cumulative IPC: 0.16183 (Simulation time: 0 hr 39 min 34 sec) 
Heartbeat CPU  0 instructions:  489000003 cycles: 2508478483 heartbeat IPC: 0.46791 cumulative IPC: 0.16210 (Simulation time: 0 hr 39 min 37 sec) 
Heartbeat CPU  0 instructions:  490000001 cycles: 2510507535 heartbeat IPC: 0.49284 cumulative IPC: 0.16238 (Simulation time: 0 hr 39 min 40 sec) 
Heartbeat CPU  0 instructions:  491000002 cycles: 2512397448 heartbeat IPC: 0.52913 cumulative IPC: 0.16267 (Simulation time: 0 hr 39 min 43 sec) 
Heartbeat CPU  0 instructions:  492000000 cycles: 2514310077 heartbeat IPC: 0.52284 cumulative IPC: 0.16296 (Simulation time: 0 hr 39 min 46 sec) 
Heartbeat CPU  0 instructions:  493000000 cycles: 2516219096 heartbeat IPC: 0.52383 cumulative IPC: 0.16324 (Simulation time: 0 hr 39 min 49 sec) 
Heartbeat CPU  0 instructions:  494000003 cycles: 2518179860 heartbeat IPC: 0.51001 cumulative IPC: 0.16353 (Simulation time: 0 hr 39 min 52 sec) 
Heartbeat CPU  0 instructions:  495000003 cycles: 2520104070 heartbeat IPC: 0.51969 cumulative IPC: 0.16381 (Simulation time: 0 hr 39 min 55 sec) 
Heartbeat CPU  0 instructions:  496000000 cycles: 2522054143 heartbeat IPC: 0.51280 cumulative IPC: 0.16409 (Simulation time: 0 hr 39 min 58 sec) 
Heartbeat CPU  0 instructions:  497000001 cycles: 2523978222 heartbeat IPC: 0.51973 cumulative IPC: 0.16437 (Simulation time: 0 hr 40 min 1 sec) 
Heartbeat CPU  0 instructions:  498000000 cycles: 2525916179 heartbeat IPC: 0.51601 cumulative IPC: 0.16466 (Simulation time: 0 hr 40 min 4 sec) 
Heartbeat CPU  0 instructions:  499000002 cycles: 2527901724 heartbeat IPC: 0.50364 cumulative IPC: 0.16493 (Simulation time: 0 hr 40 min 7 sec) 
Heartbeat CPU  0 instructions:  500000000 cycles: 2530070528 heartbeat IPC: 0.46108 cumulative IPC: 0.16520 (Simulation time: 0 hr 40 min 10 sec) 
Heartbeat CPU  0 instructions:  501000000 cycles: 2532339923 heartbeat IPC: 0.44065 cumulative IPC: 0.16546 (Simulation time: 0 hr 40 min 14 sec) 
Heartbeat CPU  0 instructions:  502000002 cycles: 2534260437 heartbeat IPC: 0.52069 cumulative IPC: 0.16574 (Simulation time: 0 hr 40 min 17 sec) 
Heartbeat CPU  0 instructions:  503000001 cycles: 2536177523 heartbeat IPC: 0.52162 cumulative IPC: 0.16602 (Simulation time: 0 hr 40 min 20 sec) 
Heartbeat CPU  0 instructions:  504000000 cycles: 2538422818 heartbeat IPC: 0.44538 cumulative IPC: 0.16628 (Simulation time: 0 hr 40 min 23 sec) 
Heartbeat CPU  0 instructions:  505000003 cycles: 2540874663 heartbeat IPC: 0.40786 cumulative IPC: 0.16652 (Simulation time: 0 hr 40 min 27 sec) 
Heartbeat CPU  0 instructions:  506000000 cycles: 2542978158 heartbeat IPC: 0.47540 cumulative IPC: 0.16679 (Simulation time: 0 hr 40 min 30 sec) 
Heartbeat CPU  0 instructions:  507000003 cycles: 2545096027 heartbeat IPC: 0.47217 cumulative IPC: 0.16705 (Simulation time: 0 hr 40 min 33 sec) 
Heartbeat CPU  0 instructions:  508000000 cycles: 2547121707 heartbeat IPC: 0.49366 cumulative IPC: 0.16733 (Simulation time: 0 hr 40 min 36 sec) 
Heartbeat CPU  0 instructions:  509000000 cycles: 2549136318 heartbeat IPC: 0.49637 cumulative IPC: 0.16760 (Simulation time: 0 hr 40 min 39 sec) 
Heartbeat CPU  0 instructions:  510000000 cycles: 2551094930 heartbeat IPC: 0.51057 cumulative IPC: 0.16787 (Simulation time: 0 hr 40 min 42 sec) 
Heartbeat CPU  0 instructions:  511000000 cycles: 2553052286 heartbeat IPC: 0.51089 cumulative IPC: 0.16815 (Simulation time: 0 hr 40 min 45 sec) 
Heartbeat CPU  0 instructions:  512000000 cycles: 2555011328 heartbeat IPC: 0.51045 cumulative IPC: 0.16842 (Simulation time: 0 hr 40 min 48 sec) 
Heartbeat CPU  0 instructions:  513000003 cycles: 2556988706 heartbeat IPC: 0.50572 cumulative IPC: 0.16869 (Simulation time: 0 hr 40 min 51 sec) 
Heartbeat CPU  0 instructions:  514000000 cycles: 2559212081 heartbeat IPC: 0.44977 cumulative IPC: 0.16895 (Simulation time: 0 hr 40 min 55 sec) 
Heartbeat CPU  0 instructions:  515000001 cycles: 2561237218 heartbeat IPC: 0.49379 cumulative IPC: 0.16922 (Simulation time: 0 hr 40 min 58 sec) 
Heartbeat CPU  0 instructions:  516000000 cycles: 2563273852 heartbeat IPC: 0.49101 cumulative IPC: 0.16948 (Simulation time: 0 hr 41 min 1 sec) 
Heartbeat CPU  0 instructions:  517000002 cycles: 2565524997 heartbeat IPC: 0.44422 cumulative IPC: 0.16974 (Simulation time: 0 hr 41 min 4 sec) 
Heartbeat CPU  0 instructions:  518000000 cycles: 2567506141 heartbeat IPC: 0.50476 cumulative IPC: 0.17001 (Simulation time: 0 hr 41 min 7 sec) 
Heartbeat CPU  0 instructions:  519000001 cycles: 2569450055 heartbeat IPC: 0.51443 cumulative IPC: 0.17028 (Simulation time: 0 hr 41 min 10 sec) 
Heartbeat CPU  0 instructions:  520000000 cycles: 2571374137 heartbeat IPC: 0.51973 cumulative IPC: 0.17055 (Simulation time: 0 hr 41 min 13 sec) 
Heartbeat CPU  0 instructions:  521000002 cycles: 2573104398 heartbeat IPC: 0.57795 cumulative IPC: 0.17084 (Simulation time: 0 hr 41 min 16 sec) 
Heartbeat CPU  0 instructions:  522000001 cycles: 2575008462 heartbeat IPC: 0.52519 cumulative IPC: 0.17111 (Simulation time: 0 hr 41 min 19 sec) 
Heartbeat CPU  0 instructions:  523000001 cycles: 2576952306 heartbeat IPC: 0.51444 cumulative IPC: 0.17138 (Simulation time: 0 hr 41 min 22 sec) 
Heartbeat CPU  0 instructions:  524000000 cycles: 2578938071 heartbeat IPC: 0.50358 cumulative IPC: 0.17165 (Simulation time: 0 hr 41 min 25 sec) 
Heartbeat CPU  0 instructions:  525000001 cycles: 2580892471 heartbeat IPC: 0.51167 cumulative IPC: 0.17192 (Simulation time: 0 hr 41 min 28 sec) 
Heartbeat CPU  0 instructions:  526000000 cycles: 2582931053 heartbeat IPC: 0.49054 cumulative IPC: 0.17218 (Simulation time: 0 hr 41 min 31 sec) 
Heartbeat CPU  0 instructions:  527000001 cycles: 2584945970 heartbeat IPC: 0.49630 cumulative IPC: 0.17244 (Simulation time: 0 hr 41 min 34 sec) 
Heartbeat CPU  0 instructions:  528000000 cycles: 2587029046 heartbeat IPC: 0.48006 cumulative IPC: 0.17270 (Simulation time: 0 hr 41 min 37 sec) 
Heartbeat CPU  0 instructions:  529000000 cycles: 2588934904 heartbeat IPC: 0.52470 cumulative IPC: 0.17297 (Simulation time: 0 hr 41 min 40 sec) 
Heartbeat CPU  0 instructions:  530000001 cycles: 2590905330 heartbeat IPC: 0.50750 cumulative IPC: 0.17324 (Simulation time: 0 hr 41 min 43 sec) 
Heartbeat CPU  0 instructions:  531000001 cycles: 2592880678 heartbeat IPC: 0.50624 cumulative IPC: 0.17350 (Simulation time: 0 hr 41 min 46 sec) 
Heartbeat CPU  0 instructions:  532000000 cycles: 2594981757 heartbeat IPC: 0.47595 cumulative IPC: 0.17376 (Simulation time: 0 hr 41 min 49 sec) 
Heartbeat CPU  0 instructions:  533000000 cycles: 2596776742 heartbeat IPC: 0.55711 cumulative IPC: 0.17403 (Simulation time: 0 hr 41 min 52 sec) 
Heartbeat CPU  0 instructions:  534000000 cycles: 2599014812 heartbeat IPC: 0.44681 cumulative IPC: 0.17428 (Simulation time: 0 hr 41 min 55 sec) 
Heartbeat CPU  0 instructions:  535000002 cycles: 2600696864 heartbeat IPC: 0.59451 cumulative IPC: 0.17456 (Simulation time: 0 hr 41 min 58 sec) 
Heartbeat CPU  0 instructions:  536000000 cycles: 2602526865 heartbeat IPC: 0.54645 cumulative IPC: 0.17484 (Simulation time: 0 hr 42 min 0 sec) 
Heartbeat CPU  0 instructions:  537000000 cycles: 2604356081 heartbeat IPC: 0.54668 cumulative IPC: 0.17511 (Simulation time: 0 hr 42 min 3 sec) 
Heartbeat CPU  0 instructions:  538000000 cycles: 2606163661 heartbeat IPC: 0.55323 cumulative IPC: 0.17538 (Simulation time: 0 hr 42 min 6 sec) 
Heartbeat CPU  0 instructions:  539000000 cycles: 2608005164 heartbeat IPC: 0.54303 cumulative IPC: 0.17565 (Simulation time: 0 hr 42 min 9 sec) 
Heartbeat CPU  0 instructions:  540000000 cycles: 2609671200 heartbeat IPC: 0.60023 cumulative IPC: 0.17594 (Simulation time: 0 hr 42 min 12 sec) 
Heartbeat CPU  0 instructions:  541000003 cycles: 2611763262 heartbeat IPC: 0.47800 cumulative IPC: 0.17619 (Simulation time: 0 hr 42 min 15 sec) 
Heartbeat CPU  0 instructions:  542000001 cycles: 2613774221 heartbeat IPC: 0.49727 cumulative IPC: 0.17645 (Simulation time: 0 hr 42 min 18 sec) 
Heartbeat CPU  0 instructions:  543000000 cycles: 2615739809 heartbeat IPC: 0.50875 cumulative IPC: 0.17671 (Simulation time: 0 hr 42 min 21 sec) 
Heartbeat CPU  0 instructions:  544000000 cycles: 2617588658 heartbeat IPC: 0.54088 cumulative IPC: 0.17698 (Simulation time: 0 hr 42 min 24 sec) 
Heartbeat CPU  0 instructions:  545000000 cycles: 2619572780 heartbeat IPC: 0.50400 cumulative IPC: 0.17723 (Simulation time: 0 hr 42 min 27 sec) 
Heartbeat CPU  0 instructions:  546000003 cycles: 2621609228 heartbeat IPC: 0.49105 cumulative IPC: 0.17749 (Simulation time: 0 hr 42 min 30 sec) 
Heartbeat CPU  0 instructions:  547000000 cycles: 2623459252 heartbeat IPC: 0.54053 cumulative IPC: 0.17776 (Simulation time: 0 hr 42 min 33 sec) 
Heartbeat CPU  0 instructions:  548000000 cycles: 2625339792 heartbeat IPC: 0.53176 cumulative IPC: 0.17802 (Simulation time: 0 hr 42 min 35 sec) 
Heartbeat CPU  0 instructions:  549000000 cycles: 2627262816 heartbeat IPC: 0.52001 cumulative IPC: 0.17828 (Simulation time: 0 hr 42 min 38 sec) 
Heartbeat CPU  0 instructions:  550000000 cycles: 2629326377 heartbeat IPC: 0.48460 cumulative IPC: 0.17853 (Simulation time: 0 hr 42 min 41 sec) 
Heartbeat CPU  0 instructions:  551000003 cycles: 2631239871 heartbeat IPC: 0.52261 cumulative IPC: 0.17879 (Simulation time: 0 hr 42 min 44 sec) 
Heartbeat CPU  0 instructions:  552000000 cycles: 2633115227 heartbeat IPC: 0.53323 cumulative IPC: 0.17906 (Simulation time: 0 hr 42 min 47 sec) 
Heartbeat CPU  0 instructions:  553000000 cycles: 2635046078 heartbeat IPC: 0.51791 cumulative IPC: 0.17931 (Simulation time: 0 hr 42 min 50 sec) 
Heartbeat CPU  0 instructions:  554000002 cycles: 2637028803 heartbeat IPC: 0.50436 cumulative IPC: 0.17957 (Simulation time: 0 hr 42 min 53 sec) 
Heartbeat CPU  0 instructions:  555000002 cycles: 2639020398 heartbeat IPC: 0.50211 cumulative IPC: 0.17982 (Simulation time: 0 hr 42 min 56 sec) 
Heartbeat CPU  0 instructions:  556000000 cycles: 2640851149 heartbeat IPC: 0.54622 cumulative IPC: 0.18009 (Simulation time: 0 hr 42 min 59 sec) 
Heartbeat CPU  0 instructions:  557000001 cycles: 2642828784 heartbeat IPC: 0.50565 cumulative IPC: 0.18034 (Simulation time: 0 hr 43 min 2 sec) 
Heartbeat CPU  0 instructions:  558000003 cycles: 2644742486 heartbeat IPC: 0.52255 cumulative IPC: 0.18060 (Simulation time: 0 hr 43 min 4 sec) 
Heartbeat CPU  0 instructions:  559000002 cycles: 2646454220 heartbeat IPC: 0.58420 cumulative IPC: 0.18087 (Simulation time: 0 hr 43 min 7 sec) 
Heartbeat CPU  0 instructions:  560000000 cycles: 2648389892 heartbeat IPC: 0.51662 cumulative IPC: 0.18113 (Simulation time: 0 hr 43 min 10 sec) 
Heartbeat CPU  0 instructions:  561000003 cycles: 2650367260 heartbeat IPC: 0.50572 cumulative IPC: 0.18138 (Simulation time: 0 hr 43 min 13 sec) 
Heartbeat CPU  0 instructions:  562000001 cycles: 2652287316 heartbeat IPC: 0.52082 cumulative IPC: 0.18164 (Simulation time: 0 hr 43 min 16 sec) 
Heartbeat CPU  0 instructions:  563000001 cycles: 2654239970 heartbeat IPC: 0.51212 cumulative IPC: 0.18189 (Simulation time: 0 hr 43 min 19 sec) 
Heartbeat CPU  0 instructions:  564000000 cycles: 2656219590 heartbeat IPC: 0.50515 cumulative IPC: 0.18214 (Simulation time: 0 hr 43 min 21 sec) 
Heartbeat CPU  0 instructions:  565000002 cycles: 2658154939 heartbeat IPC: 0.51670 cumulative IPC: 0.18240 (Simulation time: 0 hr 43 min 24 sec) 
Heartbeat CPU  0 instructions:  566000003 cycles: 2660222101 heartbeat IPC: 0.48376 cumulative IPC: 0.18264 (Simulation time: 0 hr 43 min 27 sec) 
Heartbeat CPU  0 instructions:  567000000 cycles: 2662144685 heartbeat IPC: 0.52013 cumulative IPC: 0.18289 (Simulation time: 0 hr 43 min 30 sec) 
Heartbeat CPU  0 instructions:  568000000 cycles: 2664038648 heartbeat IPC: 0.52799 cumulative IPC: 0.18315 (Simulation time: 0 hr 43 min 33 sec) 
Heartbeat CPU  0 instructions:  569000001 cycles: 2666000447 heartbeat IPC: 0.50974 cumulative IPC: 0.18340 (Simulation time: 0 hr 43 min 36 sec) 
Heartbeat CPU  0 instructions:  570000001 cycles: 2668078502 heartbeat IPC: 0.48122 cumulative IPC: 0.18364 (Simulation time: 0 hr 43 min 39 sec) 
Heartbeat CPU  0 instructions:  571000000 cycles: 2669906045 heartbeat IPC: 0.54718 cumulative IPC: 0.18390 (Simulation time: 0 hr 43 min 42 sec) 
Heartbeat CPU  0 instructions:  572000000 cycles: 2671923811 heartbeat IPC: 0.49560 cumulative IPC: 0.18415 (Simulation time: 0 hr 43 min 45 sec) 
Heartbeat CPU  0 instructions:  573000001 cycles: 2673825493 heartbeat IPC: 0.52585 cumulative IPC: 0.18440 (Simulation time: 0 hr 43 min 47 sec) 
Heartbeat CPU  0 instructions:  574000000 cycles: 2675761163 heartbeat IPC: 0.51662 cumulative IPC: 0.18465 (Simulation time: 0 hr 43 min 50 sec) 
Heartbeat CPU  0 instructions:  575000003 cycles: 2677712410 heartbeat IPC: 0.51249 cumulative IPC: 0.18490 (Simulation time: 0 hr 43 min 53 sec) 
Heartbeat CPU  0 instructions:  576000000 cycles: 2679662273 heartbeat IPC: 0.51285 cumulative IPC: 0.18515 (Simulation time: 0 hr 43 min 56 sec) 
Heartbeat CPU  0 instructions:  577000000 cycles: 2681421363 heartbeat IPC: 0.56848 cumulative IPC: 0.18541 (Simulation time: 0 hr 43 min 59 sec) 
Heartbeat CPU  0 instructions:  578000002 cycles: 2683344159 heartbeat IPC: 0.52008 cumulative IPC: 0.18566 (Simulation time: 0 hr 44 min 1 sec) 
Heartbeat CPU  0 instructions:  579000003 cycles: 2685303920 heartbeat IPC: 0.51027 cumulative IPC: 0.18591 (Simulation time: 0 hr 44 min 4 sec) 
Heartbeat CPU  0 instructions:  580000000 cycles: 2687173807 heartbeat IPC: 0.53479 cumulative IPC: 0.18616 (Simulation time: 0 hr 44 min 7 sec) 
Heartbeat CPU  0 instructions:  581000001 cycles: 2688903362 heartbeat IPC: 0.57818 cumulative IPC: 0.18642 (Simulation time: 0 hr 44 min 10 sec) 
Heartbeat CPU  0 instructions:  582000000 cycles: 2690787353 heartbeat IPC: 0.53079 cumulative IPC: 0.18668 (Simulation time: 0 hr 44 min 13 sec) 
Heartbeat CPU  0 instructions:  583000000 cycles: 2692747129 heartbeat IPC: 0.51026 cumulative IPC: 0.18692 (Simulation time: 0 hr 44 min 15 sec) 
Heartbeat CPU  0 instructions:  584000000 cycles: 2694739740 heartbeat IPC: 0.50185 cumulative IPC: 0.18716 (Simulation time: 0 hr 44 min 18 sec) 
Heartbeat CPU  0 instructions:  585000001 cycles: 2696660384 heartbeat IPC: 0.52066 cumulative IPC: 0.18741 (Simulation time: 0 hr 44 min 21 sec) 
Heartbeat CPU  0 instructions:  586000001 cycles: 2698553211 heartbeat IPC: 0.52831 cumulative IPC: 0.18766 (Simulation time: 0 hr 44 min 24 sec) 
Heartbeat CPU  0 instructions:  587000001 cycles: 2700626890 heartbeat IPC: 0.48223 cumulative IPC: 0.18790 (Simulation time: 0 hr 44 min 27 sec) 
Heartbeat CPU  0 instructions:  588000000 cycles: 2702667497 heartbeat IPC: 0.49005 cumulative IPC: 0.18813 (Simulation time: 0 hr 44 min 30 sec) 
Heartbeat CPU  0 instructions:  589000002 cycles: 2704844484 heartbeat IPC: 0.45935 cumulative IPC: 0.18836 (Simulation time: 0 hr 44 min 33 sec) 
Heartbeat CPU  0 instructions:  590000001 cycles: 2706628608 heartbeat IPC: 0.56050 cumulative IPC: 0.18862 (Simulation time: 0 hr 44 min 36 sec) 
Heartbeat CPU  0 instructions:  591000001 cycles: 2708544705 heartbeat IPC: 0.52189 cumulative IPC: 0.18886 (Simulation time: 0 hr 44 min 39 sec) 
Heartbeat CPU  0 instructions:  592000000 cycles: 2710482079 heartbeat IPC: 0.51616 cumulative IPC: 0.18911 (Simulation time: 0 hr 44 min 42 sec) 
Heartbeat CPU  0 instructions:  593000000 cycles: 2712404344 heartbeat IPC: 0.52022 cumulative IPC: 0.18935 (Simulation time: 0 hr 44 min 45 sec) 
Heartbeat CPU  0 instructions:  594000003 cycles: 2714321865 heartbeat IPC: 0.52151 cumulative IPC: 0.18959 (Simulation time: 0 hr 44 min 48 sec) 
Heartbeat CPU  0 instructions:  595000000 cycles: 2716167522 heartbeat IPC: 0.54181 cumulative IPC: 0.18984 (Simulation time: 0 hr 44 min 50 sec) 
Heartbeat CPU  0 instructions:  596000000 cycles: 2717994000 heartbeat IPC: 0.54750 cumulative IPC: 0.19009 (Simulation time: 0 hr 44 min 53 sec) 
Heartbeat CPU  0 instructions:  597000001 cycles: 2719919797 heartbeat IPC: 0.51927 cumulative IPC: 0.19034 (Simulation time: 0 hr 44 min 56 sec) 
Heartbeat CPU  0 instructions:  598000001 cycles: 2721784571 heartbeat IPC: 0.53626 cumulative IPC: 0.19058 (Simulation time: 0 hr 44 min 59 sec) 
Heartbeat CPU  0 instructions:  599000003 cycles: 2723562749 heartbeat IPC: 0.56237 cumulative IPC: 0.19084 (Simulation time: 0 hr 45 min 1 sec) 
Heartbeat CPU  0 instructions:  600000000 cycles: 2725464160 heartbeat IPC: 0.52592 cumulative IPC: 0.19108 (Simulation time: 0 hr 45 min 4 sec) 
Finished CPU 0 instructions: 500000000 cycles: 2616700820 cumulative IPC: 0.19108 (Simulation time: 0 hr 45 min 4 sec) 

ChampSim completed all CPUs

[ROI Statistics]
Core_0_instructions 500000000
Core_0_cycles 2616700820
Core_0_IPC 0.19108

Core_0_branch_prediction_accuracy 95.55097
Core_0_branch_MPKI 5.00272
Core_0_average_ROB_occupancy_at_mispredict 120.34789

Core_0_L1D_total_access 237371062
Core_0_L1D_total_hit 200435104
Core_0_L1D_total_miss 36935958
Core_0_L1D_loads 154767556
Core_0_L1D_load_hit 133836041
Core_0_L1D_load_miss 20931515
Core_0_L1D_RFOs 82603506
Core_0_L1D_RFO_hit 66599063
Core_0_L1D_RFO_miss 16004443
Core_0_L1D_prefetches 0
Core_0_L1D_prefetch_hit 0
Core_0_L1D_prefetch_miss 0
Core_0_L1D_writebacks 0
Core_0_L1D_writeback_hit 0
Core_0_L1D_writeback_miss 0
Core_0_L1D_prefetch_requested 0
Core_0_L1D_prefetch_issued 0
Core_0_L1D_prefetch_useful 0
Core_0_L1D_prefetch_useless 0
Core_0_L1D_prefetch_late 0
Core_0_L1D_average_miss_latency 241.20374

Core_0_L1I_total_access 123237883
Core_0_L1I_total_hit 123237657
Core_0_L1I_total_miss 226
Core_0_L1I_loads 123237883
Core_0_L1I_load_hit 123237657
Core_0_L1I_load_miss 226
Core_0_L1I_RFOs 0
Core_0_L1I_RFO_hit 0
Core_0_L1I_RFO_miss 0
Core_0_L1I_prefetches 0
Core_0_L1I_prefetch_hit 0
Core_0_L1I_prefetch_miss 0
Core_0_L1I_writebacks 0
Core_0_L1I_writeback_hit 0
Core_0_L1I_writeback_miss 0
Core_0_L1I_prefetch_requested 0
Core_0_L1I_prefetch_issued 0
Core_0_L1I_prefetch_useful 0
Core_0_L1I_prefetch_useless 0
Core_0_L1I_prefetch_late 0
Core_0_L1I_average_miss_latency 260.57522

Core_0_L2C_total_access 86942743
Core_0_L2C_total_hit 54196735
Core_0_L2C_total_miss 32746008
Core_0_L2C_loads 20931395
Core_0_L2C_load_hit 11035716
Core_0_L2C_load_miss 9895679
Core_0_L2C_RFOs 16004438
Core_0_L2C_RFO_hit 209012
Core_0_L2C_RFO_miss 15795426
Core_0_L2C_prefetches 17899091
Core_0_L2C_prefetch_hit 10850534
Core_0_L2C_prefetch_miss 7048557
Core_0_L2C_writebacks 32107819
Core_0_L2C_writeback_hit 32101473
Core_0_L2C_writeback_miss 6346
Core_0_L2C_prefetch_requested 30737965
Core_0_L2C_prefetch_issued 30737965
Core_0_L2C_prefetch_useful 8852462
Core_0_L2C_prefetch_useless 328023
Core_0_L2C_prefetch_late 1496254
Core_0_L2C_average_miss_latency 318.36497

Core_0_LLC_total_access 62260660
Core_0_LLC_total_hit 12398300
Core_0_LLC_total_miss 49862360
Core_0_LLC_loads 8408263
Core_0_LLC_load_hit 5423457
Core_0_LLC_load_miss 2984806
Core_0_LLC_RFOs 15795409
Core_0_LLC_RFO_hit 502715
Core_0_LLC_RFO_miss 15292694
Core_0_LLC_prefetches 8535995
Core_0_LLC_prefetch_hit 413516
Core_0_LLC_prefetch_miss 8122479
Core_0_LLC_writebacks 29520993
Core_0_LLC_writeback_hit 6058612
Core_0_LLC_writeback_miss 23462381
Core_0_LLC_prefetch_requested 0
Core_0_LLC_prefetch_issued 0
Core_0_LLC_prefetch_useful 23204
Core_0_LLC_prefetch_useless 10215142
Core_0_LLC_prefetch_late 11
Core_0_LLC_average_miss_latency 186.78999

Core_0_major_page_fault 0
Core_0_minor_page_fault 401483

CPU 0 L2C PC-based stride prefetcher final stats
Channel_0_RQ_row_buffer_hit 1308557
Channel_0_RQ_row_buffer_miss 25090458
Channel_0_WQ_row_buffer_hit 3015362
Channel_0_WQ_row_buffer_miss 21471079
Channel_0_WQ_full 113
Channel_0_dbus_congested 30114305

avg_congested_cycle 11
