*************************************************
   ChampSim Multicore Out-of-Order Simulator
   Last compiled: Jan 22 2021 16:07:01
*************************************************

trace_0 traces/482.sphinx3-1100B.champsimtrace.xz
CPU 0 L2C Markov prefetcher
Initialize SHIP state
warmup_instructions 100000000
simulation_instructions 500000000
champsim_seed 260

num_cpus 1
cpu_freq 4000
dram_io_freq 2400
page_size 4096
block_size 64
max_read_per_cycle 8
max_fill_per_cycle 1
dram_channels 1
dram_ranks 1
dram_banks 8
dram_rows 65536
dram_columns 128
dram_row_size 8
dram_size 4096
dram_pages 1048576

fetch_width 6
decode_width 6
exec_width 4
lq_width 2
sq_width 2
retire_width 4
scheduler_size 128
branch_mispredict_penalty 20
rob_size 256
lq_size 72
sq_size 56
num_instr_destinations_sparc 4
num_instr_destinations 2
num_instr_sources 4

itlb_set 16
itlb_way 8
itlb_rq_size 16
itlb_wq_size 16
itlb_pq_size 0
itlb_mshr_size 8
itlb_latency 1

dtlb_set 16
dtlb_way 4
dtlb_rq_size 16
dtlb_wq_size 16
dtlb_pq_size 0
dtlb_mshr_size 8
dtlb_latency 1

stlb_set 128
stlb_way 12
stlb_rq_size 32
stlb_wq_size 32
stlb_pq_size 0
stlb_mshr_size 16
stlb_latency 8

l1i_size 32
l1i_set 64
l1i_way 8
l1i_rq_size 64
l1i_wq_size 64
l1i_pq_size 8
l1i_mshr_size 8
l1i_latency 1

l1d_size 32
l1d_set 64
l1d_way 8
l1d_rq_size 64
l1d_wq_size 64
l1d_pq_size 8
l1d_mshr_size 16
l1d_latency 4

l2c_size 512
l2c_set 1024
l2c_way 8
l2c_rq_size 32
l2c_wq_size 32
l2c_pq_size 16
l2c_mshr_size 32
l2c_latency 10

llc_size 2048
llc_set 2048
llc_way 16
llc_rq_size 32
llc_wq_size 32
llc_pq_size 32
llc_mshr_size 64
llc_latency 20

dram_channel_width 8
dram_wq_size 64
dram_rq_size 64
tRP 15
tRCD 15
tCAS 12.5
dram_dbus_turn_around_time 30
dram_write_high_wm 56
dram_write_low_wm 48
min_dram_writes_per_switch 16
dram_mtps 2400
dram_dbus_return_time 13


Heartbeat CPU  0 instructions:    1000001 cycles:     367702 heartbeat IPC: 2.71960 cumulative IPC: 2.71960 (Simulation time: 0 hr 0 min 2 sec) 
Heartbeat CPU  0 instructions:    2000003 cycles:     794968 heartbeat IPC: 2.34047 cumulative IPC: 2.51583 (Simulation time: 0 hr 0 min 3 sec) 
Heartbeat CPU  0 instructions:    3000001 cycles:    1252446 heartbeat IPC: 2.18589 cumulative IPC: 2.39531 (Simulation time: 0 hr 0 min 5 sec) 
Heartbeat CPU  0 instructions:    4000000 cycles:    1734813 heartbeat IPC: 2.07311 cumulative IPC: 2.30572 (Simulation time: 0 hr 0 min 6 sec) 
Heartbeat CPU  0 instructions:    5000000 cycles:    2177352 heartbeat IPC: 2.25969 cumulative IPC: 2.29637 (Simulation time: 0 hr 0 min 8 sec) 
Heartbeat CPU  0 instructions:    6000001 cycles:    2544706 heartbeat IPC: 2.72217 cumulative IPC: 2.35784 (Simulation time: 0 hr 0 min 9 sec) 
Heartbeat CPU  0 instructions:    7000000 cycles:    2935671 heartbeat IPC: 2.55777 cumulative IPC: 2.38446 (Simulation time: 0 hr 0 min 11 sec) 
Heartbeat CPU  0 instructions:    8000000 cycles:    3394015 heartbeat IPC: 2.18177 cumulative IPC: 2.35709 (Simulation time: 0 hr 0 min 12 sec) 
Heartbeat CPU  0 instructions:    9000000 cycles:    3851998 heartbeat IPC: 2.18349 cumulative IPC: 2.33645 (Simulation time: 0 hr 0 min 14 sec) 
Heartbeat CPU  0 instructions:   10000000 cycles:    4342013 heartbeat IPC: 2.04075 cumulative IPC: 2.30308 (Simulation time: 0 hr 0 min 15 sec) 
Heartbeat CPU  0 instructions:   11000001 cycles:    4714299 heartbeat IPC: 2.68611 cumulative IPC: 2.33333 (Simulation time: 0 hr 0 min 17 sec) 
Heartbeat CPU  0 instructions:   12000000 cycles:    5081494 heartbeat IPC: 2.72335 cumulative IPC: 2.36151 (Simulation time: 0 hr 0 min 18 sec) 
Heartbeat CPU  0 instructions:   13000001 cycles:    5530486 heartbeat IPC: 2.22721 cumulative IPC: 2.35061 (Simulation time: 0 hr 0 min 20 sec) 
Heartbeat CPU  0 instructions:   14000000 cycles:    5988437 heartbeat IPC: 2.18364 cumulative IPC: 2.33784 (Simulation time: 0 hr 0 min 21 sec) 
Heartbeat CPU  0 instructions:   15000000 cycles:    6470641 heartbeat IPC: 2.07381 cumulative IPC: 2.31816 (Simulation time: 0 hr 0 min 23 sec) 
Heartbeat CPU  0 instructions:   16000000 cycles:    6880682 heartbeat IPC: 2.43878 cumulative IPC: 2.32535 (Simulation time: 0 hr 0 min 24 sec) 
Heartbeat CPU  0 instructions:   17000003 cycles:    7247932 heartbeat IPC: 2.72295 cumulative IPC: 2.34550 (Simulation time: 0 hr 0 min 26 sec) 
Heartbeat CPU  0 instructions:   18000003 cycles:    7659759 heartbeat IPC: 2.42820 cumulative IPC: 2.34994 (Simulation time: 0 hr 0 min 28 sec) 
Heartbeat CPU  0 instructions:   19000003 cycles:    8117609 heartbeat IPC: 2.18412 cumulative IPC: 2.34059 (Simulation time: 0 hr 0 min 29 sec) 
Heartbeat CPU  0 instructions:   20000000 cycles:    8585951 heartbeat IPC: 2.13519 cumulative IPC: 2.32939 (Simulation time: 0 hr 0 min 31 sec) 
Heartbeat CPU  0 instructions:   21000002 cycles:    9044846 heartbeat IPC: 2.17915 cumulative IPC: 2.32176 (Simulation time: 0 hr 0 min 32 sec) 
Heartbeat CPU  0 instructions:   22000003 cycles:    9412121 heartbeat IPC: 2.72276 cumulative IPC: 2.33741 (Simulation time: 0 hr 0 min 34 sec) 
Heartbeat CPU  0 instructions:   23000001 cycles:    9792688 heartbeat IPC: 2.62765 cumulative IPC: 2.34869 (Simulation time: 0 hr 0 min 35 sec) 
Heartbeat CPU  0 instructions:   24000000 cycles:   10247800 heartbeat IPC: 2.19726 cumulative IPC: 2.34197 (Simulation time: 0 hr 0 min 37 sec) 
Heartbeat CPU  0 instructions:   25000002 cycles:   10703182 heartbeat IPC: 2.19596 cumulative IPC: 2.33575 (Simulation time: 0 hr 0 min 38 sec) 
Heartbeat CPU  0 instructions:   26000002 cycles:   11181731 heartbeat IPC: 2.08965 cumulative IPC: 2.32522 (Simulation time: 0 hr 0 min 40 sec) 
Heartbeat CPU  0 instructions:   27000001 cycles:   11574893 heartbeat IPC: 2.54348 cumulative IPC: 2.33263 (Simulation time: 0 hr 0 min 41 sec) 
Heartbeat CPU  0 instructions:   28000000 cycles:   11941870 heartbeat IPC: 2.72496 cumulative IPC: 2.34469 (Simulation time: 0 hr 0 min 43 sec) 
Heartbeat CPU  0 instructions:   29000001 cycles:   12377999 heartbeat IPC: 2.29290 cumulative IPC: 2.34287 (Simulation time: 0 hr 0 min 44 sec) 
Heartbeat CPU  0 instructions:   30000003 cycles:   12831441 heartbeat IPC: 2.20536 cumulative IPC: 2.33801 (Simulation time: 0 hr 0 min 46 sec) 
Heartbeat CPU  0 instructions:   31000002 cycles:   13285405 heartbeat IPC: 2.20282 cumulative IPC: 2.33339 (Simulation time: 0 hr 0 min 47 sec) 
Heartbeat CPU  0 instructions:   32000000 cycles:   13768318 heartbeat IPC: 2.07076 cumulative IPC: 2.32418 (Simulation time: 0 hr 0 min 49 sec) 
Heartbeat CPU  0 instructions:   33000003 cycles:   14169457 heartbeat IPC: 2.49291 cumulative IPC: 2.32895 (Simulation time: 0 hr 0 min 51 sec) 
Heartbeat CPU  0 instructions:   34000003 cycles:   14536473 heartbeat IPC: 2.72468 cumulative IPC: 2.33894 (Simulation time: 0 hr 0 min 52 sec) 
Heartbeat CPU  0 instructions:   35000000 cycles:   14963384 heartbeat IPC: 2.34240 cumulative IPC: 2.33904 (Simulation time: 0 hr 0 min 54 sec) 
Heartbeat CPU  0 instructions:   36000000 cycles:   15416959 heartbeat IPC: 2.20471 cumulative IPC: 2.33509 (Simulation time: 0 hr 0 min 55 sec) 
Heartbeat CPU  0 instructions:   37000000 cycles:   15870883 heartbeat IPC: 2.20301 cumulative IPC: 2.33131 (Simulation time: 0 hr 0 min 57 sec) 
Heartbeat CPU  0 instructions:   38000003 cycles:   16358378 heartbeat IPC: 2.05131 cumulative IPC: 2.32297 (Simulation time: 0 hr 0 min 58 sec) 
Heartbeat CPU  0 instructions:   39000001 cycles:   16765804 heartbeat IPC: 2.45443 cumulative IPC: 2.32616 (Simulation time: 0 hr 1 min 0 sec) 
Heartbeat CPU  0 instructions:   40000000 cycles:   17132936 heartbeat IPC: 2.72381 cumulative IPC: 2.33468 (Simulation time: 0 hr 1 min 1 sec) 
Heartbeat CPU  0 instructions:   41000003 cycles:   17552982 heartbeat IPC: 2.38070 cumulative IPC: 2.33579 (Simulation time: 0 hr 1 min 3 sec) 
Heartbeat CPU  0 instructions:   42000000 cycles:   18010842 heartbeat IPC: 2.18407 cumulative IPC: 2.33193 (Simulation time: 0 hr 1 min 5 sec) 
Heartbeat CPU  0 instructions:   43000001 cycles:   18467116 heartbeat IPC: 2.19167 cumulative IPC: 2.32846 (Simulation time: 0 hr 1 min 6 sec) 
Heartbeat CPU  0 instructions:   44000000 cycles:   18957006 heartbeat IPC: 2.04127 cumulative IPC: 2.32104 (Simulation time: 0 hr 1 min 8 sec) 
Heartbeat CPU  0 instructions:   45000002 cycles:   19369196 heartbeat IPC: 2.42607 cumulative IPC: 2.32328 (Simulation time: 0 hr 1 min 9 sec) 
Heartbeat CPU  0 instructions:   46000000 cycles:   19736434 heartbeat IPC: 2.72302 cumulative IPC: 2.33071 (Simulation time: 0 hr 1 min 11 sec) 
Heartbeat CPU  0 instructions:   47000002 cycles:   20149451 heartbeat IPC: 2.42121 cumulative IPC: 2.33257 (Simulation time: 0 hr 1 min 13 sec) 
Heartbeat CPU  0 instructions:   48000000 cycles:   20608986 heartbeat IPC: 2.17611 cumulative IPC: 2.32908 (Simulation time: 0 hr 1 min 14 sec) 
Heartbeat CPU  0 instructions:   49000003 cycles:   21065476 heartbeat IPC: 2.19063 cumulative IPC: 2.32608 (Simulation time: 0 hr 1 min 16 sec) 
Heartbeat CPU  0 instructions:   50000003 cycles:   21575811 heartbeat IPC: 1.95950 cumulative IPC: 2.31741 (Simulation time: 0 hr 1 min 17 sec) 
Heartbeat CPU  0 instructions:   51000002 cycles:   22037922 heartbeat IPC: 2.16398 cumulative IPC: 2.31419 (Simulation time: 0 hr 1 min 19 sec) 
Heartbeat CPU  0 instructions:   52000000 cycles:   22411094 heartbeat IPC: 2.67972 cumulative IPC: 2.32028 (Simulation time: 0 hr 1 min 21 sec) 
Heartbeat CPU  0 instructions:   53000001 cycles:   22778444 heartbeat IPC: 2.72220 cumulative IPC: 2.32676 (Simulation time: 0 hr 1 min 22 sec) 
Heartbeat CPU  0 instructions:   54000001 cycles:   23227884 heartbeat IPC: 2.22499 cumulative IPC: 2.32479 (Simulation time: 0 hr 1 min 24 sec) 
Heartbeat CPU  0 instructions:   55000001 cycles:   23681348 heartbeat IPC: 2.20525 cumulative IPC: 2.32250 (Simulation time: 0 hr 1 min 26 sec) 
Heartbeat CPU  0 instructions:   56000000 cycles:   24138407 heartbeat IPC: 2.18790 cumulative IPC: 2.31995 (Simulation time: 0 hr 1 min 27 sec) 
Heartbeat CPU  0 instructions:   57000003 cycles:   24623478 heartbeat IPC: 2.06156 cumulative IPC: 2.31486 (Simulation time: 0 hr 1 min 29 sec) 
Heartbeat CPU  0 instructions:   58000001 cycles:   25016990 heartbeat IPC: 2.54121 cumulative IPC: 2.31842 (Simulation time: 0 hr 1 min 31 sec) 
Heartbeat CPU  0 instructions:   59000001 cycles:   25384122 heartbeat IPC: 2.72382 cumulative IPC: 2.32429 (Simulation time: 0 hr 1 min 32 sec) 
Heartbeat CPU  0 instructions:   60000000 cycles:   25823346 heartbeat IPC: 2.27674 cumulative IPC: 2.32348 (Simulation time: 0 hr 1 min 34 sec) 
Heartbeat CPU  0 instructions:   61000000 cycles:   26279238 heartbeat IPC: 2.19350 cumulative IPC: 2.32122 (Simulation time: 0 hr 1 min 36 sec) 
Heartbeat CPU  0 instructions:   62000000 cycles:   26736693 heartbeat IPC: 2.18601 cumulative IPC: 2.31891 (Simulation time: 0 hr 1 min 37 sec) 
Heartbeat CPU  0 instructions:   63000000 cycles:   27223847 heartbeat IPC: 2.05274 cumulative IPC: 2.31415 (Simulation time: 0 hr 1 min 39 sec) 
Heartbeat CPU  0 instructions:   64000000 cycles:   27625939 heartbeat IPC: 2.48699 cumulative IPC: 2.31666 (Simulation time: 0 hr 1 min 41 sec) 
Heartbeat CPU  0 instructions:   65000000 cycles:   27993208 heartbeat IPC: 2.72280 cumulative IPC: 2.32199 (Simulation time: 0 hr 1 min 42 sec) 
Heartbeat CPU  0 instructions:   66000001 cycles:   28418247 heartbeat IPC: 2.35273 cumulative IPC: 2.32245 (Simulation time: 0 hr 1 min 44 sec) 
Heartbeat CPU  0 instructions:   67000003 cycles:   28877875 heartbeat IPC: 2.17568 cumulative IPC: 2.32012 (Simulation time: 0 hr 1 min 46 sec) 
Heartbeat CPU  0 instructions:   68000000 cycles:   29331982 heartbeat IPC: 2.20212 cumulative IPC: 2.31829 (Simulation time: 0 hr 1 min 48 sec) 
Heartbeat CPU  0 instructions:   69000001 cycles:   29818762 heartbeat IPC: 2.05432 cumulative IPC: 2.31398 (Simulation time: 0 hr 1 min 49 sec) 
Heartbeat CPU  0 instructions:   70000001 cycles:   30227932 heartbeat IPC: 2.44397 cumulative IPC: 2.31574 (Simulation time: 0 hr 1 min 51 sec) 
Heartbeat CPU  0 instructions:   71000001 cycles:   30595268 heartbeat IPC: 2.72230 cumulative IPC: 2.32062 (Simulation time: 0 hr 1 min 53 sec) 
Heartbeat CPU  0 instructions:   72000000 cycles:   31010792 heartbeat IPC: 2.40660 cumulative IPC: 2.32177 (Simulation time: 0 hr 1 min 54 sec) 
Heartbeat CPU  0 instructions:   73000000 cycles:   31467446 heartbeat IPC: 2.18984 cumulative IPC: 2.31986 (Simulation time: 0 hr 1 min 56 sec) 
Heartbeat CPU  0 instructions:   74000002 cycles:   31922809 heartbeat IPC: 2.19605 cumulative IPC: 2.31809 (Simulation time: 0 hr 1 min 58 sec) 
Heartbeat CPU  0 instructions:   75000002 cycles:   32411254 heartbeat IPC: 2.04731 cumulative IPC: 2.31401 (Simulation time: 0 hr 2 min 0 sec) 
Heartbeat CPU  0 instructions:   76000000 cycles:   32829944 heartbeat IPC: 2.38840 cumulative IPC: 2.31496 (Simulation time: 0 hr 2 min 1 sec) 
Heartbeat CPU  0 instructions:   77000003 cycles:   33197238 heartbeat IPC: 2.72262 cumulative IPC: 2.31947 (Simulation time: 0 hr 2 min 3 sec) 
Heartbeat CPU  0 instructions:   78000002 cycles:   33605362 heartbeat IPC: 2.45023 cumulative IPC: 2.32106 (Simulation time: 0 hr 2 min 4 sec) 
Heartbeat CPU  0 instructions:   79000000 cycles:   34060608 heartbeat IPC: 2.19661 cumulative IPC: 2.31939 (Simulation time: 0 hr 2 min 6 sec) 
Heartbeat CPU  0 instructions:   80000000 cycles:   34517497 heartbeat IPC: 2.18872 cumulative IPC: 2.31767 (Simulation time: 0 hr 2 min 7 sec) 
Heartbeat CPU  0 instructions:   81000001 cycles:   34976470 heartbeat IPC: 2.17878 cumulative IPC: 2.31584 (Simulation time: 0 hr 2 min 9 sec) 
Heartbeat CPU  0 instructions:   82000001 cycles:   35463063 heartbeat IPC: 2.05511 cumulative IPC: 2.31227 (Simulation time: 0 hr 2 min 10 sec) 
Heartbeat CPU  0 instructions:   83000001 cycles:   35834595 heartbeat IPC: 2.69156 cumulative IPC: 2.31620 (Simulation time: 0 hr 2 min 12 sec) 
Heartbeat CPU  0 instructions:   84000000 cycles:   36202771 heartbeat IPC: 2.71609 cumulative IPC: 2.32026 (Simulation time: 0 hr 2 min 14 sec) 
Heartbeat CPU  0 instructions:   85000003 cycles:   36658125 heartbeat IPC: 2.19610 cumulative IPC: 2.31872 (Simulation time: 0 hr 2 min 16 sec) 
Heartbeat CPU  0 instructions:   86000001 cycles:   37113663 heartbeat IPC: 2.19520 cumulative IPC: 2.31721 (Simulation time: 0 hr 2 min 17 sec) 
Heartbeat CPU  0 instructions:   87000003 cycles:   37570795 heartbeat IPC: 2.18756 cumulative IPC: 2.31563 (Simulation time: 0 hr 2 min 19 sec) 
Heartbeat CPU  0 instructions:   88000000 cycles:   38060197 heartbeat IPC: 2.04330 cumulative IPC: 2.31213 (Simulation time: 0 hr 2 min 20 sec) 
Heartbeat CPU  0 instructions:   89000002 cycles:   38463477 heartbeat IPC: 2.47967 cumulative IPC: 2.31388 (Simulation time: 0 hr 2 min 22 sec) 
Heartbeat CPU  0 instructions:   90000002 cycles:   38830863 heartbeat IPC: 2.72193 cumulative IPC: 2.31774 (Simulation time: 0 hr 2 min 24 sec) 
Heartbeat CPU  0 instructions:   91000002 cycles:   39251718 heartbeat IPC: 2.37612 cumulative IPC: 2.31837 (Simulation time: 0 hr 2 min 25 sec) 
Heartbeat CPU  0 instructions:   92000000 cycles:   39705206 heartbeat IPC: 2.20513 cumulative IPC: 2.31708 (Simulation time: 0 hr 2 min 27 sec) 
Heartbeat CPU  0 instructions:   93000002 cycles:   40161712 heartbeat IPC: 2.19056 cumulative IPC: 2.31564 (Simulation time: 0 hr 2 min 28 sec) 
Heartbeat CPU  0 instructions:   94000001 cycles:   40650052 heartbeat IPC: 2.04775 cumulative IPC: 2.31242 (Simulation time: 0 hr 2 min 30 sec) 
Heartbeat CPU  0 instructions:   95000003 cycles:   41022547 heartbeat IPC: 2.68461 cumulative IPC: 2.31580 (Simulation time: 0 hr 2 min 31 sec) 
Heartbeat CPU  0 instructions:   96000000 cycles:   41389786 heartbeat IPC: 2.72301 cumulative IPC: 2.31941 (Simulation time: 0 hr 2 min 33 sec) 
Heartbeat CPU  0 instructions:   97000001 cycles:   41835658 heartbeat IPC: 2.24280 cumulative IPC: 2.31860 (Simulation time: 0 hr 2 min 34 sec) 
Heartbeat CPU  0 instructions:   98000002 cycles:   42292075 heartbeat IPC: 2.19098 cumulative IPC: 2.31722 (Simulation time: 0 hr 2 min 36 sec) 
Heartbeat CPU  0 instructions:   99000003 cycles:   42778102 heartbeat IPC: 2.05750 cumulative IPC: 2.31427 (Simulation time: 0 hr 2 min 37 sec) 
Heartbeat CPU  0 instructions:  100000000 cycles:   43322056 heartbeat IPC: 1.83839 cumulative IPC: 2.30829 (Simulation time: 0 hr 2 min 39 sec) 

Warmup complete CPU  0 instructions:  100000001 cycles:   43322057 (Simulation time: 0 hr 2 min 39 sec) 

Heartbeat CPU  0 instructions:  101000001 cycles:   44122635 heartbeat IPC: 1.24910 cumulative IPC: 1.24910 (Simulation time: 0 hr 2 min 41 sec) 
Heartbeat CPU  0 instructions:  102000003 cycles:   44719062 heartbeat IPC: 1.67665 cumulative IPC: 1.43164 (Simulation time: 0 hr 2 min 43 sec) 
Heartbeat CPU  0 instructions:  103000000 cycles:   45433493 heartbeat IPC: 1.39971 cumulative IPC: 1.42083 (Simulation time: 0 hr 2 min 45 sec) 
Heartbeat CPU  0 instructions:  104000000 cycles:   46388709 heartbeat IPC: 1.04688 cumulative IPC: 1.30435 (Simulation time: 0 hr 2 min 47 sec) 
Heartbeat CPU  0 instructions:  105000000 cycles:   47323582 heartbeat IPC: 1.06966 cumulative IPC: 1.24952 (Simulation time: 0 hr 2 min 48 sec) 
Heartbeat CPU  0 instructions:  106000003 cycles:   47992027 heartbeat IPC: 1.49601 cumulative IPC: 1.28481 (Simulation time: 0 hr 2 min 50 sec) 
Heartbeat CPU  0 instructions:  107000003 cycles:   48580559 heartbeat IPC: 1.69914 cumulative IPC: 1.33118 (Simulation time: 0 hr 2 min 52 sec) 
Heartbeat CPU  0 instructions:  108000000 cycles:   49465991 heartbeat IPC: 1.12939 cumulative IPC: 1.30210 (Simulation time: 0 hr 2 min 54 sec) 
Heartbeat CPU  0 instructions:  109000000 cycles:   50434589 heartbeat IPC: 1.03242 cumulative IPC: 1.26537 (Simulation time: 0 hr 2 min 56 sec) 
Heartbeat CPU  0 instructions:  110000001 cycles:   51216139 heartbeat IPC: 1.27951 cumulative IPC: 1.26677 (Simulation time: 0 hr 2 min 58 sec) 
Heartbeat CPU  0 instructions:  111000000 cycles:   51804993 heartbeat IPC: 1.69821 cumulative IPC: 1.29672 (Simulation time: 0 hr 3 min 0 sec) 
Heartbeat CPU  0 instructions:  112000000 cycles:   52521163 heartbeat IPC: 1.39632 cumulative IPC: 1.30447 (Simulation time: 0 hr 3 min 2 sec) 
Heartbeat CPU  0 instructions:  113000003 cycles:   53456540 heartbeat IPC: 1.06909 cumulative IPC: 1.28275 (Simulation time: 0 hr 3 min 4 sec) 
Heartbeat CPU  0 instructions:  114000001 cycles:   54375434 heartbeat IPC: 1.08826 cumulative IPC: 1.26658 (Simulation time: 0 hr 3 min 5 sec) 
Heartbeat CPU  0 instructions:  115000000 cycles:   55171709 heartbeat IPC: 1.25585 cumulative IPC: 1.26586 (Simulation time: 0 hr 3 min 7 sec) 
Heartbeat CPU  0 instructions:  116000000 cycles:   55760554 heartbeat IPC: 1.69824 cumulative IPC: 1.28633 (Simulation time: 0 hr 3 min 9 sec) 
Heartbeat CPU  0 instructions:  117000000 cycles:   56634994 heartbeat IPC: 1.14359 cumulative IPC: 1.27695 (Simulation time: 0 hr 3 min 11 sec) 
Heartbeat CPU  0 instructions:  118000003 cycles:   57537255 heartbeat IPC: 1.10833 cumulative IPC: 1.26625 (Simulation time: 0 hr 3 min 13 sec) 
Heartbeat CPU  0 instructions:  119000002 cycles:   58481605 heartbeat IPC: 1.05893 cumulative IPC: 1.25334 (Simulation time: 0 hr 3 min 15 sec) 
Heartbeat CPU  0 instructions:  120000000 cycles:   59549112 heartbeat IPC: 0.93676 cumulative IPC: 1.23251 (Simulation time: 0 hr 3 min 17 sec) 
Heartbeat CPU  0 instructions:  121000000 cycles:   60398143 heartbeat IPC: 1.17781 cumulative IPC: 1.22979 (Simulation time: 0 hr 3 min 19 sec) 
Heartbeat CPU  0 instructions:  122000001 cycles:   60987607 heartbeat IPC: 1.69646 cumulative IPC: 1.24536 (Simulation time: 0 hr 3 min 21 sec) 
Heartbeat CPU  0 instructions:  123000001 cycles:   61703306 heartbeat IPC: 1.39724 cumulative IPC: 1.25128 (Simulation time: 0 hr 3 min 23 sec) 
Heartbeat CPU  0 instructions:  124000000 cycles:   62647049 heartbeat IPC: 1.05961 cumulative IPC: 1.24192 (Simulation time: 0 hr 3 min 25 sec) 
Heartbeat CPU  0 instructions:  125000001 cycles:   63568850 heartbeat IPC: 1.08483 cumulative IPC: 1.23476 (Simulation time: 0 hr 3 min 27 sec) 
Heartbeat CPU  0 instructions:  126000003 cycles:   64532457 heartbeat IPC: 1.03777 cumulative IPC: 1.22581 (Simulation time: 0 hr 3 min 29 sec) 
Heartbeat CPU  0 instructions:  127000000 cycles:   65486892 heartbeat IPC: 1.04774 cumulative IPC: 1.21815 (Simulation time: 0 hr 3 min 31 sec) 
Heartbeat CPU  0 instructions:  128000000 cycles:   66095934 heartbeat IPC: 1.64192 cumulative IPC: 1.22948 (Simulation time: 0 hr 3 min 33 sec) 
Heartbeat CPU  0 instructions:  129000000 cycles:   66719249 heartbeat IPC: 1.60433 cumulative IPC: 1.23946 (Simulation time: 0 hr 3 min 35 sec) 
Heartbeat CPU  0 instructions:  130000000 cycles:   67676691 heartbeat IPC: 1.04445 cumulative IPC: 1.23180 (Simulation time: 0 hr 3 min 37 sec) 
Heartbeat CPU  0 instructions:  131000002 cycles:   68606235 heartbeat IPC: 1.07580 cumulative IPC: 1.22606 (Simulation time: 0 hr 3 min 39 sec) 
Heartbeat CPU  0 instructions:  132000000 cycles:   69616372 heartbeat IPC: 0.98996 cumulative IPC: 1.21699 (Simulation time: 0 hr 3 min 41 sec) 
Heartbeat CPU  0 instructions:  133000000 cycles:   70372651 heartbeat IPC: 1.32226 cumulative IPC: 1.21994 (Simulation time: 0 hr 3 min 43 sec) 
Heartbeat CPU  0 instructions:  134000002 cycles:   70965258 heartbeat IPC: 1.68746 cumulative IPC: 1.22996 (Simulation time: 0 hr 3 min 45 sec) 
Heartbeat CPU  0 instructions:  135000001 cycles:   71749642 heartbeat IPC: 1.27488 cumulative IPC: 1.23120 (Simulation time: 0 hr 3 min 47 sec) 
Heartbeat CPU  0 instructions:  136000000 cycles:   72692481 heartbeat IPC: 1.06063 cumulative IPC: 1.22572 (Simulation time: 0 hr 3 min 49 sec) 
Heartbeat CPU  0 instructions:  137000002 cycles:   73676686 heartbeat IPC: 1.01605 cumulative IPC: 1.21892 (Simulation time: 0 hr 3 min 51 sec) 
Heartbeat CPU  0 instructions:  138000002 cycles:   74401516 heartbeat IPC: 1.37963 cumulative IPC: 1.22267 (Simulation time: 0 hr 3 min 53 sec) 
Heartbeat CPU  0 instructions:  139000002 cycles:   74995945 heartbeat IPC: 1.68229 cumulative IPC: 1.23130 (Simulation time: 0 hr 3 min 55 sec) 
Heartbeat CPU  0 instructions:  140000000 cycles:   75817336 heartbeat IPC: 1.21744 cumulative IPC: 1.23095 (Simulation time: 0 hr 3 min 57 sec) 
Heartbeat CPU  0 instructions:  141000000 cycles:   76757353 heartbeat IPC: 1.06381 cumulative IPC: 1.22625 (Simulation time: 0 hr 4 min 0 sec) 
Heartbeat CPU  0 instructions:  142000001 cycles:   77713171 heartbeat IPC: 1.04623 cumulative IPC: 1.22125 (Simulation time: 0 hr 4 min 2 sec) 
Heartbeat CPU  0 instructions:  143000003 cycles:   78369604 heartbeat IPC: 1.52339 cumulative IPC: 1.22690 (Simulation time: 0 hr 4 min 4 sec) 
Heartbeat CPU  0 instructions:  144000000 cycles:   78959271 heartbeat IPC: 1.69587 cumulative IPC: 1.23466 (Simulation time: 0 hr 4 min 5 sec) 
Heartbeat CPU  0 instructions:  145000002 cycles:   79865203 heartbeat IPC: 1.10384 cumulative IPC: 1.23142 (Simulation time: 0 hr 4 min 7 sec) 
Heartbeat CPU  0 instructions:  146000002 cycles:   80837084 heartbeat IPC: 1.02893 cumulative IPC: 1.22618 (Simulation time: 0 hr 4 min 9 sec) 
Heartbeat CPU  0 instructions:  147000002 cycles:   81696927 heartbeat IPC: 1.16300 cumulative IPC: 1.22476 (Simulation time: 0 hr 4 min 11 sec) 
Heartbeat CPU  0 instructions:  148000000 cycles:   82286007 heartbeat IPC: 1.69756 cumulative IPC: 1.23191 (Simulation time: 0 hr 4 min 13 sec) 
Heartbeat CPU  0 instructions:  149000003 cycles:   82950143 heartbeat IPC: 1.50572 cumulative IPC: 1.23650 (Simulation time: 0 hr 4 min 15 sec) 
Heartbeat CPU  0 instructions:  150000003 cycles:   83896611 heartbeat IPC: 1.05656 cumulative IPC: 1.23230 (Simulation time: 0 hr 4 min 17 sec) 
Heartbeat CPU  0 instructions:  151000002 cycles:   84939992 heartbeat IPC: 0.95842 cumulative IPC: 1.22543 (Simulation time: 0 hr 4 min 19 sec) 
Heartbeat CPU  0 instructions:  152000000 cycles:   85829949 heartbeat IPC: 1.12365 cumulative IPC: 1.22330 (Simulation time: 0 hr 4 min 21 sec) 
Heartbeat CPU  0 instructions:  153000001 cycles:   86547124 heartbeat IPC: 1.39436 cumulative IPC: 1.22614 (Simulation time: 0 hr 4 min 23 sec) 
Heartbeat CPU  0 instructions:  154000003 cycles:   87138743 heartbeat IPC: 1.69028 cumulative IPC: 1.23241 (Simulation time: 0 hr 4 min 25 sec) 
Heartbeat CPU  0 instructions:  155000003 cycles:   87918426 heartbeat IPC: 1.28257 cumulative IPC: 1.23328 (Simulation time: 0 hr 4 min 27 sec) 
Heartbeat CPU  0 instructions:  156000000 cycles:   88865244 heartbeat IPC: 1.05617 cumulative IPC: 1.22960 (Simulation time: 0 hr 4 min 29 sec) 
Heartbeat CPU  0 instructions:  157000003 cycles:   89802951 heartbeat IPC: 1.06643 cumulative IPC: 1.22631 (Simulation time: 0 hr 4 min 31 sec) 
Heartbeat CPU  0 instructions:  158000003 cycles:   90427472 heartbeat IPC: 1.60123 cumulative IPC: 1.23128 (Simulation time: 0 hr 4 min 33 sec) 
Heartbeat CPU  0 instructions:  159000000 cycles:   91018006 heartbeat IPC: 1.69338 cumulative IPC: 1.23700 (Simulation time: 0 hr 4 min 35 sec) 
Heartbeat CPU  0 instructions:  160000000 cycles:   91967713 heartbeat IPC: 1.05296 cumulative IPC: 1.23341 (Simulation time: 0 hr 4 min 37 sec) 
Heartbeat CPU  0 instructions:  161000000 cycles:   92952119 heartbeat IPC: 1.01584 cumulative IPC: 1.22909 (Simulation time: 0 hr 4 min 39 sec) 
Heartbeat CPU  0 instructions:  162000003 cycles:   93695317 heartbeat IPC: 1.34554 cumulative IPC: 1.23081 (Simulation time: 0 hr 4 min 41 sec) 
Heartbeat CPU  0 instructions:  163000002 cycles:   94285197 heartbeat IPC: 1.69526 cumulative IPC: 1.23619 (Simulation time: 0 hr 4 min 43 sec) 
Heartbeat CPU  0 instructions:  164000000 cycles:   95046674 heartbeat IPC: 1.31323 cumulative IPC: 1.23732 (Simulation time: 0 hr 4 min 45 sec) 
Heartbeat CPU  0 instructions:  165000000 cycles:   95985991 heartbeat IPC: 1.06460 cumulative IPC: 1.23424 (Simulation time: 0 hr 4 min 47 sec) 
Heartbeat CPU  0 instructions:  166000002 cycles:   96917351 heartbeat IPC: 1.07370 cumulative IPC: 1.23145 (Simulation time: 0 hr 4 min 49 sec) 
Heartbeat CPU  0 instructions:  167000001 cycles:   97543560 heartbeat IPC: 1.59691 cumulative IPC: 1.23567 (Simulation time: 0 hr 4 min 51 sec) 
Heartbeat CPU  0 instructions:  168000000 cycles:   98134079 heartbeat IPC: 1.69342 cumulative IPC: 1.24060 (Simulation time: 0 hr 4 min 53 sec) 
Heartbeat CPU  0 instructions:  169000000 cycles:   99076151 heartbeat IPC: 1.06149 cumulative IPC: 1.23758 (Simulation time: 0 hr 4 min 55 sec) 
Heartbeat CPU  0 instructions:  170000002 cycles:  100059541 heartbeat IPC: 1.01689 cumulative IPC: 1.23375 (Simulation time: 0 hr 4 min 57 sec) 
Heartbeat CPU  0 instructions:  171000003 cycles:  100810101 heartbeat IPC: 1.33234 cumulative IPC: 1.23504 (Simulation time: 0 hr 4 min 59 sec) 
Heartbeat CPU  0 instructions:  172000000 cycles:  101403759 heartbeat IPC: 1.68447 cumulative IPC: 1.23963 (Simulation time: 0 hr 5 min 1 sec) 
Heartbeat CPU  0 instructions:  173000000 cycles:  102162490 heartbeat IPC: 1.31799 cumulative IPC: 1.24064 (Simulation time: 0 hr 5 min 3 sec) 
Heartbeat CPU  0 instructions:  174000000 cycles:  103109889 heartbeat IPC: 1.05552 cumulative IPC: 1.23771 (Simulation time: 0 hr 5 min 5 sec) 
Heartbeat CPU  0 instructions:  175000002 cycles:  104044816 heartbeat IPC: 1.06960 cumulative IPC: 1.23512 (Simulation time: 0 hr 5 min 7 sec) 
Heartbeat CPU  0 instructions:  176000000 cycles:  104674760 heartbeat IPC: 1.58744 cumulative IPC: 1.23874 (Simulation time: 0 hr 5 min 9 sec) 
Heartbeat CPU  0 instructions:  177000003 cycles:  105263214 heartbeat IPC: 1.69937 cumulative IPC: 1.24312 (Simulation time: 0 hr 5 min 11 sec) 
Heartbeat CPU  0 instructions:  178000003 cycles:  106190326 heartbeat IPC: 1.07862 cumulative IPC: 1.24069 (Simulation time: 0 hr 5 min 13 sec) 
Heartbeat CPU  0 instructions:  179000003 cycles:  107180926 heartbeat IPC: 1.00949 cumulative IPC: 1.23710 (Simulation time: 0 hr 5 min 15 sec) 
Heartbeat CPU  0 instructions:  180000000 cycles:  107933857 heartbeat IPC: 1.32814 cumulative IPC: 1.23816 (Simulation time: 0 hr 5 min 17 sec) 
Heartbeat CPU  0 instructions:  181000002 cycles:  108526356 heartbeat IPC: 1.68777 cumulative IPC: 1.24225 (Simulation time: 0 hr 5 min 19 sec) 
Heartbeat CPU  0 instructions:  182000002 cycles:  109278496 heartbeat IPC: 1.32954 cumulative IPC: 1.24324 (Simulation time: 0 hr 5 min 21 sec) 
Heartbeat CPU  0 instructions:  183000002 cycles:  110207205 heartbeat IPC: 1.07676 cumulative IPC: 1.24093 (Simulation time: 0 hr 5 min 23 sec) 
Heartbeat CPU  0 instructions:  184000000 cycles:  111148508 heartbeat IPC: 1.06236 cumulative IPC: 1.23845 (Simulation time: 0 hr 5 min 25 sec) 
Heartbeat CPU  0 instructions:  185000003 cycles:  111784337 heartbeat IPC: 1.57275 cumulative IPC: 1.24156 (Simulation time: 0 hr 5 min 27 sec) 
Heartbeat CPU  0 instructions:  186000001 cycles:  112376099 heartbeat IPC: 1.68987 cumulative IPC: 1.24540 (Simulation time: 0 hr 5 min 29 sec) 
Heartbeat CPU  0 instructions:  187000002 cycles:  113304085 heartbeat IPC: 1.07760 cumulative IPC: 1.24318 (Simulation time: 0 hr 5 min 31 sec) 
Heartbeat CPU  0 instructions:  188000000 cycles:  114292802 heartbeat IPC: 1.01141 cumulative IPC: 1.23995 (Simulation time: 0 hr 5 min 33 sec) 
Heartbeat CPU  0 instructions:  189000001 cycles:  115056264 heartbeat IPC: 1.30982 cumulative IPC: 1.24069 (Simulation time: 0 hr 5 min 35 sec) 
Heartbeat CPU  0 instructions:  190000001 cycles:  115649229 heartbeat IPC: 1.68644 cumulative IPC: 1.24435 (Simulation time: 0 hr 5 min 37 sec) 
Heartbeat CPU  0 instructions:  191000003 cycles:  116399050 heartbeat IPC: 1.33365 cumulative IPC: 1.24526 (Simulation time: 0 hr 5 min 39 sec) 
Heartbeat CPU  0 instructions:  192000000 cycles:  117333042 heartbeat IPC: 1.07067 cumulative IPC: 1.24306 (Simulation time: 0 hr 5 min 41 sec) 
Heartbeat CPU  0 instructions:  193000002 cycles:  118281809 heartbeat IPC: 1.05400 cumulative IPC: 1.24067 (Simulation time: 0 hr 5 min 43 sec) 
Heartbeat CPU  0 instructions:  194000002 cycles:  118918108 heartbeat IPC: 1.57159 cumulative IPC: 1.24345 (Simulation time: 0 hr 5 min 45 sec) 
Heartbeat CPU  0 instructions:  195000003 cycles:  119508195 heartbeat IPC: 1.69467 cumulative IPC: 1.24695 (Simulation time: 0 hr 5 min 47 sec) 
Heartbeat CPU  0 instructions:  196000000 cycles:  120430643 heartbeat IPC: 1.08407 cumulative IPC: 1.24500 (Simulation time: 0 hr 5 min 49 sec) 
Heartbeat CPU  0 instructions:  197000002 cycles:  121429788 heartbeat IPC: 1.00086 cumulative IPC: 1.24187 (Simulation time: 0 hr 5 min 51 sec) 
Heartbeat CPU  0 instructions:  198000001 cycles:  122186435 heartbeat IPC: 1.32162 cumulative IPC: 1.24264 (Simulation time: 0 hr 5 min 53 sec) 
Heartbeat CPU  0 instructions:  199000001 cycles:  122779983 heartbeat IPC: 1.68478 cumulative IPC: 1.24594 (Simulation time: 0 hr 5 min 55 sec) 
Heartbeat CPU  0 instructions:  200000000 cycles:  123522122 heartbeat IPC: 1.34746 cumulative IPC: 1.24688 (Simulation time: 0 hr 5 min 57 sec) 
Heartbeat CPU  0 instructions:  201000003 cycles:  124448872 heartbeat IPC: 1.07904 cumulative IPC: 1.24496 (Simulation time: 0 hr 5 min 59 sec) 
Heartbeat CPU  0 instructions:  202000001 cycles:  125388834 heartbeat IPC: 1.06387 cumulative IPC: 1.24289 (Simulation time: 0 hr 6 min 1 sec) 
Heartbeat CPU  0 instructions:  203000001 cycles:  126038270 heartbeat IPC: 1.53980 cumulative IPC: 1.24522 (Simulation time: 0 hr 6 min 3 sec) 
Heartbeat CPU  0 instructions:  204000000 cycles:  126628164 heartbeat IPC: 1.69522 cumulative IPC: 1.24841 (Simulation time: 0 hr 6 min 5 sec) 
Heartbeat CPU  0 instructions:  205000002 cycles:  127530436 heartbeat IPC: 1.10832 cumulative IPC: 1.24691 (Simulation time: 0 hr 6 min 7 sec) 
Heartbeat CPU  0 instructions:  206000001 cycles:  128524034 heartbeat IPC: 1.00644 cumulative IPC: 1.24410 (Simulation time: 0 hr 6 min 9 sec) 
Heartbeat CPU  0 instructions:  207000000 cycles:  129292693 heartbeat IPC: 1.30097 cumulative IPC: 1.24461 (Simulation time: 0 hr 6 min 11 sec) 
Heartbeat CPU  0 instructions:  208000000 cycles:  129884677 heartbeat IPC: 1.68923 cumulative IPC: 1.24765 (Simulation time: 0 hr 6 min 13 sec) 
Heartbeat CPU  0 instructions:  209000001 cycles:  130615912 heartbeat IPC: 1.36755 cumulative IPC: 1.24866 (Simulation time: 0 hr 6 min 15 sec) 
Heartbeat CPU  0 instructions:  210000000 cycles:  131543006 heartbeat IPC: 1.07864 cumulative IPC: 1.24687 (Simulation time: 0 hr 6 min 18 sec) 
Heartbeat CPU  0 instructions:  211000003 cycles:  132568844 heartbeat IPC: 0.97482 cumulative IPC: 1.24374 (Simulation time: 0 hr 6 min 20 sec) 
Heartbeat CPU  0 instructions:  212000000 cycles:  133407741 heartbeat IPC: 1.19204 cumulative IPC: 1.24326 (Simulation time: 0 hr 6 min 22 sec) 
Heartbeat CPU  0 instructions:  213000002 cycles:  134057007 heartbeat IPC: 1.54020 cumulative IPC: 1.24539 (Simulation time: 0 hr 6 min 24 sec) 
Heartbeat CPU  0 instructions:  214000000 cycles:  134647231 heartbeat IPC: 1.69427 cumulative IPC: 1.24829 (Simulation time: 0 hr 6 min 26 sec) 
Heartbeat CPU  0 instructions:  215000002 cycles:  135554132 heartbeat IPC: 1.10266 cumulative IPC: 1.24685 (Simulation time: 0 hr 6 min 28 sec) 
Heartbeat CPU  0 instructions:  216000000 cycles:  136551132 heartbeat IPC: 1.00301 cumulative IPC: 1.24425 (Simulation time: 0 hr 6 min 30 sec) 
Heartbeat CPU  0 instructions:  217000001 cycles:  137311613 heartbeat IPC: 1.31496 cumulative IPC: 1.24482 (Simulation time: 0 hr 6 min 32 sec) 
Heartbeat CPU  0 instructions:  218000000 cycles:  137903588 heartbeat IPC: 1.68926 cumulative IPC: 1.24760 (Simulation time: 0 hr 6 min 33 sec) 
Heartbeat CPU  0 instructions:  219000000 cycles:  138644500 heartbeat IPC: 1.34969 cumulative IPC: 1.24839 (Simulation time: 0 hr 6 min 35 sec) 
Heartbeat CPU  0 instructions:  220000000 cycles:  139573784 heartbeat IPC: 1.07610 cumulative IPC: 1.24673 (Simulation time: 0 hr 6 min 37 sec) 
Heartbeat CPU  0 instructions:  221000001 cycles:  140517681 heartbeat IPC: 1.05944 cumulative IPC: 1.24491 (Simulation time: 0 hr 6 min 39 sec) 
Heartbeat CPU  0 instructions:  222000003 cycles:  141157548 heartbeat IPC: 1.56283 cumulative IPC: 1.24699 (Simulation time: 0 hr 6 min 41 sec) 
Heartbeat CPU  0 instructions:  223000000 cycles:  141747255 heartbeat IPC: 1.69575 cumulative IPC: 1.24968 (Simulation time: 0 hr 6 min 43 sec) 
Heartbeat CPU  0 instructions:  224000000 cycles:  142667192 heartbeat IPC: 1.08703 cumulative IPC: 1.24817 (Simulation time: 0 hr 6 min 45 sec) 
Heartbeat CPU  0 instructions:  225000001 cycles:  143659591 heartbeat IPC: 1.00766 cumulative IPC: 1.24580 (Simulation time: 0 hr 6 min 47 sec) 
Heartbeat CPU  0 instructions:  226000002 cycles:  144415314 heartbeat IPC: 1.32324 cumulative IPC: 1.24637 (Simulation time: 0 hr 6 min 49 sec) 
Heartbeat CPU  0 instructions:  227000001 cycles:  145006296 heartbeat IPC: 1.69210 cumulative IPC: 1.24896 (Simulation time: 0 hr 6 min 51 sec) 
Heartbeat CPU  0 instructions:  228000000 cycles:  145752122 heartbeat IPC: 1.34079 cumulative IPC: 1.24963 (Simulation time: 0 hr 6 min 53 sec) 
Heartbeat CPU  0 instructions:  229000003 cycles:  146685995 heartbeat IPC: 1.07081 cumulative IPC: 1.24802 (Simulation time: 0 hr 6 min 55 sec) 
Heartbeat CPU  0 instructions:  230000001 cycles:  147628838 heartbeat IPC: 1.06062 cumulative IPC: 1.24632 (Simulation time: 0 hr 6 min 57 sec) 
Heartbeat CPU  0 instructions:  231000002 cycles:  148268104 heartbeat IPC: 1.56430 cumulative IPC: 1.24826 (Simulation time: 0 hr 6 min 59 sec) 
Heartbeat CPU  0 instructions:  232000000 cycles:  148858212 heartbeat IPC: 1.69460 cumulative IPC: 1.25076 (Simulation time: 0 hr 7 min 1 sec) 
Heartbeat CPU  0 instructions:  233000002 cycles:  149771891 heartbeat IPC: 1.09448 cumulative IPC: 1.24941 (Simulation time: 0 hr 7 min 3 sec) 
Heartbeat CPU  0 instructions:  234000002 cycles:  150766562 heartbeat IPC: 1.00536 cumulative IPC: 1.24716 (Simulation time: 0 hr 7 min 5 sec) 
Heartbeat CPU  0 instructions:  235000000 cycles:  151519609 heartbeat IPC: 1.32794 cumulative IPC: 1.24772 (Simulation time: 0 hr 7 min 7 sec) 
Heartbeat CPU  0 instructions:  236000000 cycles:  152110835 heartbeat IPC: 1.69140 cumulative IPC: 1.25013 (Simulation time: 0 hr 7 min 9 sec) 
Heartbeat CPU  0 instructions:  237000003 cycles:  152853043 heartbeat IPC: 1.34734 cumulative IPC: 1.25079 (Simulation time: 0 hr 7 min 11 sec) 
Heartbeat CPU  0 instructions:  238000000 cycles:  153781647 heartbeat IPC: 1.07688 cumulative IPC: 1.24933 (Simulation time: 0 hr 7 min 13 sec) 
Heartbeat CPU  0 instructions:  239000000 cycles:  154717369 heartbeat IPC: 1.06869 cumulative IPC: 1.24781 (Simulation time: 0 hr 7 min 14 sec) 
Heartbeat CPU  0 instructions:  240000000 cycles:  155362662 heartbeat IPC: 1.54968 cumulative IPC: 1.24955 (Simulation time: 0 hr 7 min 16 sec) 
Heartbeat CPU  0 instructions:  241000000 cycles:  155951597 heartbeat IPC: 1.69798 cumulative IPC: 1.25189 (Simulation time: 0 hr 7 min 18 sec) 
Heartbeat CPU  0 instructions:  242000002 cycles:  156859052 heartbeat IPC: 1.10199 cumulative IPC: 1.25069 (Simulation time: 0 hr 7 min 20 sec) 
Heartbeat CPU  0 instructions:  243000001 cycles:  157850088 heartbeat IPC: 1.00904 cumulative IPC: 1.24860 (Simulation time: 0 hr 7 min 23 sec) 
Heartbeat CPU  0 instructions:  244000000 cycles:  158610171 heartbeat IPC: 1.31564 cumulative IPC: 1.24904 (Simulation time: 0 hr 7 min 25 sec) 
Heartbeat CPU  0 instructions:  245000001 cycles:  159203933 heartbeat IPC: 1.68418 cumulative IPC: 1.25127 (Simulation time: 0 hr 7 min 27 sec) 
Heartbeat CPU  0 instructions:  246000000 cycles:  159940466 heartbeat IPC: 1.35771 cumulative IPC: 1.25195 (Simulation time: 0 hr 7 min 29 sec) 
Heartbeat CPU  0 instructions:  247000001 cycles:  160863722 heartbeat IPC: 1.08312 cumulative IPC: 1.25062 (Simulation time: 0 hr 7 min 31 sec) 
Heartbeat CPU  0 instructions:  248000000 cycles:  161810578 heartbeat IPC: 1.05613 cumulative IPC: 1.24907 (Simulation time: 0 hr 7 min 33 sec) 
Heartbeat CPU  0 instructions:  249000003 cycles:  162457049 heartbeat IPC: 1.54686 cumulative IPC: 1.25068 (Simulation time: 0 hr 7 min 35 sec) 
Heartbeat CPU  0 instructions:  250000003 cycles:  163048549 heartbeat IPC: 1.69062 cumulative IPC: 1.25286 (Simulation time: 0 hr 7 min 37 sec) 
Heartbeat CPU  0 instructions:  251000002 cycles:  163962060 heartbeat IPC: 1.09468 cumulative IPC: 1.25166 (Simulation time: 0 hr 7 min 39 sec) 
Heartbeat CPU  0 instructions:  252000000 cycles:  164960393 heartbeat IPC: 1.00167 cumulative IPC: 1.24961 (Simulation time: 0 hr 7 min 41 sec) 
Heartbeat CPU  0 instructions:  253000002 cycles:  165721088 heartbeat IPC: 1.31459 cumulative IPC: 1.25001 (Simulation time: 0 hr 7 min 43 sec) 
Heartbeat CPU  0 instructions:  254000003 cycles:  166312965 heartbeat IPC: 1.68954 cumulative IPC: 1.25213 (Simulation time: 0 hr 7 min 45 sec) 
Heartbeat CPU  0 instructions:  255000002 cycles:  167061365 heartbeat IPC: 1.33618 cumulative IPC: 1.25263 (Simulation time: 0 hr 7 min 47 sec) 
Heartbeat CPU  0 instructions:  256000000 cycles:  167999578 heartbeat IPC: 1.06585 cumulative IPC: 1.25123 (Simulation time: 0 hr 7 min 49 sec) 
Heartbeat CPU  0 instructions:  257000001 cycles:  168933039 heartbeat IPC: 1.07128 cumulative IPC: 1.24989 (Simulation time: 0 hr 7 min 51 sec) 
Heartbeat CPU  0 instructions:  258000000 cycles:  169568137 heartbeat IPC: 1.57456 cumulative IPC: 1.25152 (Simulation time: 0 hr 7 min 53 sec) 
Heartbeat CPU  0 instructions:  259000000 cycles:  170158474 heartbeat IPC: 1.69395 cumulative IPC: 1.25358 (Simulation time: 0 hr 7 min 55 sec) 
Heartbeat CPU  0 instructions:  260000000 cycles:  171090380 heartbeat IPC: 1.07307 cumulative IPC: 1.25227 (Simulation time: 0 hr 7 min 57 sec) 
Heartbeat CPU  0 instructions:  261000003 cycles:  172071357 heartbeat IPC: 1.01939 cumulative IPC: 1.25049 (Simulation time: 0 hr 7 min 59 sec) 
Heartbeat CPU  0 instructions:  262000001 cycles:  172821079 heartbeat IPC: 1.33383 cumulative IPC: 1.25097 (Simulation time: 0 hr 8 min 1 sec) 
Heartbeat CPU  0 instructions:  263000002 cycles:  173413592 heartbeat IPC: 1.68773 cumulative IPC: 1.25296 (Simulation time: 0 hr 8 min 3 sec) 
Heartbeat CPU  0 instructions:  264000000 cycles:  174175895 heartbeat IPC: 1.31181 cumulative IPC: 1.25331 (Simulation time: 0 hr 8 min 5 sec) 
Heartbeat CPU  0 instructions:  265000000 cycles:  175155943 heartbeat IPC: 1.02036 cumulative IPC: 1.25157 (Simulation time: 0 hr 8 min 7 sec) 
Heartbeat CPU  0 instructions:  266000000 cycles:  176149021 heartbeat IPC: 1.00697 cumulative IPC: 1.24975 (Simulation time: 0 hr 8 min 9 sec) 
Heartbeat CPU  0 instructions:  267000002 cycles:  176967820 heartbeat IPC: 1.22130 cumulative IPC: 1.24957 (Simulation time: 0 hr 8 min 11 sec) 
Heartbeat CPU  0 instructions:  268000000 cycles:  177588266 heartbeat IPC: 1.61174 cumulative IPC: 1.25125 (Simulation time: 0 hr 8 min 13 sec) 
Heartbeat CPU  0 instructions:  269000002 cycles:  178178171 heartbeat IPC: 1.69519 cumulative IPC: 1.25319 (Simulation time: 0 hr 8 min 15 sec) 
Heartbeat CPU  0 instructions:  270000003 cycles:  179342734 heartbeat IPC: 0.85869 cumulative IPC: 1.24981 (Simulation time: 0 hr 8 min 17 sec) 
Heartbeat CPU  0 instructions:  271000001 cycles:  180232803 heartbeat IPC: 1.12351 cumulative IPC: 1.24899 (Simulation time: 0 hr 8 min 19 sec) 
Heartbeat CPU  0 instructions:  272000000 cycles:  180828831 heartbeat IPC: 1.67777 cumulative IPC: 1.25085 (Simulation time: 0 hr 8 min 21 sec) 
Heartbeat CPU  0 instructions:  273000001 cycles:  181476173 heartbeat IPC: 1.54478 cumulative IPC: 1.25222 (Simulation time: 0 hr 8 min 23 sec) 
Heartbeat CPU  0 instructions:  274000000 cycles:  182686025 heartbeat IPC: 0.82655 cumulative IPC: 1.24853 (Simulation time: 0 hr 8 min 25 sec) 
Heartbeat CPU  0 instructions:  275000003 cycles:  183456669 heartbeat IPC: 1.29762 cumulative IPC: 1.24880 (Simulation time: 0 hr 8 min 27 sec) 
Heartbeat CPU  0 instructions:  276000000 cycles:  184047609 heartbeat IPC: 1.69221 cumulative IPC: 1.25066 (Simulation time: 0 hr 8 min 29 sec) 
Heartbeat CPU  0 instructions:  277000001 cycles:  184833318 heartbeat IPC: 1.27274 cumulative IPC: 1.25078 (Simulation time: 0 hr 8 min 31 sec) 
Heartbeat CPU  0 instructions:  278000002 cycles:  185947685 heartbeat IPC: 0.89737 cumulative IPC: 1.24802 (Simulation time: 0 hr 8 min 34 sec) 
Heartbeat CPU  0 instructions:  279000003 cycles:  186691011 heartbeat IPC: 1.34531 cumulative IPC: 1.24853 (Simulation time: 0 hr 8 min 36 sec) 
Heartbeat CPU  0 instructions:  280000000 cycles:  187283067 heartbeat IPC: 1.68902 cumulative IPC: 1.25034 (Simulation time: 0 hr 8 min 38 sec) 
Heartbeat CPU  0 instructions:  281000003 cycles:  188105450 heartbeat IPC: 1.21598 cumulative IPC: 1.25014 (Simulation time: 0 hr 8 min 40 sec) 
Heartbeat CPU  0 instructions:  282000001 cycles:  189206345 heartbeat IPC: 0.90835 cumulative IPC: 1.24756 (Simulation time: 0 hr 8 min 42 sec) 
Heartbeat CPU  0 instructions:  283000003 cycles:  189956401 heartbeat IPC: 1.33324 cumulative IPC: 1.24800 (Simulation time: 0 hr 8 min 44 sec) 
Heartbeat CPU  0 instructions:  284000000 cycles:  190546769 heartbeat IPC: 1.69385 cumulative IPC: 1.24979 (Simulation time: 0 hr 8 min 47 sec) 
Heartbeat CPU  0 instructions:  285000002 cycles:  191456073 heartbeat IPC: 1.09974 cumulative IPC: 1.24887 (Simulation time: 0 hr 8 min 49 sec) 
Heartbeat CPU  0 instructions:  286000002 cycles:  192676175 heartbeat IPC: 0.81960 cumulative IPC: 1.24536 (Simulation time: 0 hr 8 min 51 sec) 
Heartbeat CPU  0 instructions:  287000003 cycles:  193585116 heartbeat IPC: 1.10018 cumulative IPC: 1.24448 (Simulation time: 0 hr 8 min 53 sec) 
Heartbeat CPU  0 instructions:  288000000 cycles:  194174564 heartbeat IPC: 1.69650 cumulative IPC: 1.24625 (Simulation time: 0 hr 8 min 55 sec) 
Heartbeat CPU  0 instructions:  289000001 cycles:  194897918 heartbeat IPC: 1.38245 cumulative IPC: 1.24690 (Simulation time: 0 hr 8 min 57 sec) 
Heartbeat CPU  0 instructions:  290000002 cycles:  195942695 heartbeat IPC: 0.95714 cumulative IPC: 1.24492 (Simulation time: 0 hr 8 min 59 sec) 
Heartbeat CPU  0 instructions:  291000003 cycles:  197059609 heartbeat IPC: 0.89533 cumulative IPC: 1.24238 (Simulation time: 0 hr 9 min 1 sec) 
Heartbeat CPU  0 instructions:  292000000 cycles:  198132394 heartbeat IPC: 0.93215 cumulative IPC: 1.24023 (Simulation time: 0 hr 9 min 3 sec) 
Heartbeat CPU  0 instructions:  293000001 cycles:  198792600 heartbeat IPC: 1.51468 cumulative IPC: 1.24139 (Simulation time: 0 hr 9 min 5 sec) 
Heartbeat CPU  0 instructions:  294000002 cycles:  199386380 heartbeat IPC: 1.68413 cumulative IPC: 1.24308 (Simulation time: 0 hr 9 min 7 sec) 
Heartbeat CPU  0 instructions:  295000003 cycles:  200315264 heartbeat IPC: 1.07656 cumulative IPC: 1.24209 (Simulation time: 0 hr 9 min 9 sec) 
Heartbeat CPU  0 instructions:  296000000 cycles:  201260271 heartbeat IPC: 1.05819 cumulative IPC: 1.24099 (Simulation time: 0 hr 9 min 11 sec) 
Heartbeat CPU  0 instructions:  297000002 cycles:  202211616 heartbeat IPC: 1.05115 cumulative IPC: 1.23985 (Simulation time: 0 hr 9 min 13 sec) 
Heartbeat CPU  0 instructions:  298000003 cycles:  203264303 heartbeat IPC: 0.94995 cumulative IPC: 1.23795 (Simulation time: 0 hr 9 min 16 sec) 
Heartbeat CPU  0 instructions:  299000001 cycles:  204094189 heartbeat IPC: 1.20498 cumulative IPC: 1.23778 (Simulation time: 0 hr 9 min 18 sec) 
Heartbeat CPU  0 instructions:  300000000 cycles:  204688103 heartbeat IPC: 1.68374 cumulative IPC: 1.23942 (Simulation time: 0 hr 9 min 20 sec) 
Heartbeat CPU  0 instructions:  301000000 cycles:  205496902 heartbeat IPC: 1.23640 cumulative IPC: 1.23940 (Simulation time: 0 hr 9 min 22 sec) 
Heartbeat CPU  0 instructions:  302000001 cycles:  206435466 heartbeat IPC: 1.06546 cumulative IPC: 1.23840 (Simulation time: 0 hr 9 min 24 sec) 
Heartbeat CPU  0 instructions:  303000003 cycles:  207357942 heartbeat IPC: 1.08404 cumulative IPC: 1.23753 (Simulation time: 0 hr 9 min 26 sec) 
Heartbeat CPU  0 instructions:  304000000 cycles:  208279343 heartbeat IPC: 1.08530 cumulative IPC: 1.23668 (Simulation time: 0 hr 9 min 28 sec) 
Heartbeat CPU  0 instructions:  305000000 cycles:  209406136 heartbeat IPC: 0.88747 cumulative IPC: 1.23431 (Simulation time: 0 hr 9 min 30 sec) 
Heartbeat CPU  0 instructions:  306000002 cycles:  210246071 heartbeat IPC: 1.19057 cumulative IPC: 1.23409 (Simulation time: 0 hr 9 min 32 sec) 
Heartbeat CPU  0 instructions:  307000001 cycles:  210839251 heartbeat IPC: 1.68583 cumulative IPC: 1.23569 (Simulation time: 0 hr 9 min 34 sec) 
Heartbeat CPU  0 instructions:  308000000 cycles:  211599481 heartbeat IPC: 1.31539 cumulative IPC: 1.23605 (Simulation time: 0 hr 9 min 36 sec) 
Heartbeat CPU  0 instructions:  309000002 cycles:  212548610 heartbeat IPC: 1.05360 cumulative IPC: 1.23503 (Simulation time: 0 hr 9 min 38 sec) 
Heartbeat CPU  0 instructions:  310000002 cycles:  213456953 heartbeat IPC: 1.10091 cumulative IPC: 1.23431 (Simulation time: 0 hr 9 min 40 sec) 
Heartbeat CPU  0 instructions:  311000002 cycles:  214386221 heartbeat IPC: 1.07612 cumulative IPC: 1.23346 (Simulation time: 0 hr 9 min 42 sec) 
Heartbeat CPU  0 instructions:  312000000 cycles:  215478822 heartbeat IPC: 0.91525 cumulative IPC: 1.23144 (Simulation time: 0 hr 9 min 44 sec) 
Heartbeat CPU  0 instructions:  313000003 cycles:  216268238 heartbeat IPC: 1.26676 cumulative IPC: 1.23160 (Simulation time: 0 hr 9 min 46 sec) 
Heartbeat CPU  0 instructions:  314000000 cycles:  216861635 heartbeat IPC: 1.68521 cumulative IPC: 1.23315 (Simulation time: 0 hr 9 min 48 sec) 
Heartbeat CPU  0 instructions:  315000003 cycles:  217646519 heartbeat IPC: 1.27408 cumulative IPC: 1.23333 (Simulation time: 0 hr 9 min 50 sec) 
Heartbeat CPU  0 instructions:  316000000 cycles:  218599660 heartbeat IPC: 1.04916 cumulative IPC: 1.23233 (Simulation time: 0 hr 9 min 53 sec) 
Heartbeat CPU  0 instructions:  317000002 cycles:  219590904 heartbeat IPC: 1.00884 cumulative IPC: 1.23107 (Simulation time: 0 hr 9 min 55 sec) 
Heartbeat CPU  0 instructions:  318000001 cycles:  220674600 heartbeat IPC: 0.92277 cumulative IPC: 1.22919 (Simulation time: 0 hr 9 min 57 sec) 
Heartbeat CPU  0 instructions:  319000002 cycles:  221471106 heartbeat IPC: 1.25548 cumulative IPC: 1.22931 (Simulation time: 0 hr 10 min 0 sec) 
Heartbeat CPU  0 instructions:  320000000 cycles:  222065723 heartbeat IPC: 1.68175 cumulative IPC: 1.23081 (Simulation time: 0 hr 10 min 1 sec) 
Heartbeat CPU  0 instructions:  321000000 cycles:  222865313 heartbeat IPC: 1.25064 cumulative IPC: 1.23090 (Simulation time: 0 hr 10 min 4 sec) 
Heartbeat CPU  0 instructions:  322000001 cycles:  223850260 heartbeat IPC: 1.01528 cumulative IPC: 1.22972 (Simulation time: 0 hr 10 min 6 sec) 
Heartbeat CPU  0 instructions:  323000000 cycles:  224856339 heartbeat IPC: 0.99396 cumulative IPC: 1.22842 (Simulation time: 0 hr 10 min 8 sec) 
Heartbeat CPU  0 instructions:  324000000 cycles:  226010650 heartbeat IPC: 0.86632 cumulative IPC: 1.22613 (Simulation time: 0 hr 10 min 10 sec) 
Heartbeat CPU  0 instructions:  325000000 cycles:  226831327 heartbeat IPC: 1.21851 cumulative IPC: 1.22610 (Simulation time: 0 hr 10 min 12 sec) 
Heartbeat CPU  0 instructions:  326000000 cycles:  227424264 heartbeat IPC: 1.68652 cumulative IPC: 1.22758 (Simulation time: 0 hr 10 min 14 sec) 
Heartbeat CPU  0 instructions:  327000001 cycles:  228137180 heartbeat IPC: 1.40269 cumulative IPC: 1.22825 (Simulation time: 0 hr 10 min 16 sec) 
Heartbeat CPU  0 instructions:  328000000 cycles:  229127855 heartbeat IPC: 1.00941 cumulative IPC: 1.22709 (Simulation time: 0 hr 10 min 18 sec) 
Heartbeat CPU  0 instructions:  329000000 cycles:  230105988 heartbeat IPC: 1.02236 cumulative IPC: 1.22602 (Simulation time: 0 hr 10 min 21 sec) 
Heartbeat CPU  0 instructions:  330000000 cycles:  231221976 heartbeat IPC: 0.89607 cumulative IPC: 1.22406 (Simulation time: 0 hr 10 min 23 sec) 
Heartbeat CPU  0 instructions:  331000003 cycles:  232032028 heartbeat IPC: 1.23449 cumulative IPC: 1.22410 (Simulation time: 0 hr 10 min 25 sec) 
Heartbeat CPU  0 instructions:  332000000 cycles:  232623210 heartbeat IPC: 1.69152 cumulative IPC: 1.22556 (Simulation time: 0 hr 10 min 27 sec) 
Heartbeat CPU  0 instructions:  333000000 cycles:  233352943 heartbeat IPC: 1.37036 cumulative IPC: 1.22612 (Simulation time: 0 hr 10 min 29 sec) 
Heartbeat CPU  0 instructions:  334000002 cycles:  234392140 heartbeat IPC: 0.96228 cumulative IPC: 1.22468 (Simulation time: 0 hr 10 min 31 sec) 
Heartbeat CPU  0 instructions:  335000002 cycles:  235412803 heartbeat IPC: 0.97976 cumulative IPC: 1.22338 (Simulation time: 0 hr 10 min 33 sec) 
Heartbeat CPU  0 instructions:  336000000 cycles:  236524144 heartbeat IPC: 0.89981 cumulative IPC: 1.22152 (Simulation time: 0 hr 10 min 35 sec) 
Heartbeat CPU  0 instructions:  337000003 cycles:  237355677 heartbeat IPC: 1.20260 cumulative IPC: 1.22144 (Simulation time: 0 hr 10 min 37 sec) 
Heartbeat CPU  0 instructions:  338000000 cycles:  238030810 heartbeat IPC: 1.48119 cumulative IPC: 1.22234 (Simulation time: 0 hr 10 min 39 sec) 
Heartbeat CPU  0 instructions:  339000001 cycles:  238624168 heartbeat IPC: 1.68532 cumulative IPC: 1.22375 (Simulation time: 0 hr 10 min 41 sec) 
Heartbeat CPU  0 instructions:  340000000 cycles:  239592963 heartbeat IPC: 1.03221 cumulative IPC: 1.22280 (Simulation time: 0 hr 10 min 43 sec) 
Heartbeat CPU  0 instructions:  341000000 cycles:  240626680 heartbeat IPC: 0.96738 cumulative IPC: 1.22146 (Simulation time: 0 hr 10 min 45 sec) 
Heartbeat CPU  0 instructions:  342000001 cycles:  241652689 heartbeat IPC: 0.97465 cumulative IPC: 1.22018 (Simulation time: 0 hr 10 min 47 sec) 
Heartbeat CPU  0 instructions:  343000001 cycles:  242371605 heartbeat IPC: 1.39098 cumulative IPC: 1.22080 (Simulation time: 0 hr 10 min 49 sec) 
Heartbeat CPU  0 instructions:  344000000 cycles:  242966499 heartbeat IPC: 1.68097 cumulative IPC: 1.22217 (Simulation time: 0 hr 10 min 51 sec) 
Heartbeat CPU  0 instructions:  345000002 cycles:  243853120 heartbeat IPC: 1.12788 cumulative IPC: 1.22176 (Simulation time: 0 hr 10 min 53 sec) 
Heartbeat CPU  0 instructions:  346000000 cycles:  244870917 heartbeat IPC: 0.98251 cumulative IPC: 1.22055 (Simulation time: 0 hr 10 min 55 sec) 
Heartbeat CPU  0 instructions:  347000000 cycles:  245946830 heartbeat IPC: 0.92944 cumulative IPC: 1.21900 (Simulation time: 0 hr 10 min 57 sec) 
Heartbeat CPU  0 instructions:  348000000 cycles:  246700477 heartbeat IPC: 1.32688 cumulative IPC: 1.21940 (Simulation time: 0 hr 11 min 0 sec) 
Heartbeat CPU  0 instructions:  349000003 cycles:  247291111 heartbeat IPC: 1.69310 cumulative IPC: 1.22077 (Simulation time: 0 hr 11 min 2 sec) 
Heartbeat CPU  0 instructions:  350000000 cycles:  248060717 heartbeat IPC: 1.29936 cumulative IPC: 1.22107 (Simulation time: 0 hr 11 min 4 sec) 
Heartbeat CPU  0 instructions:  351000000 cycles:  249094725 heartbeat IPC: 0.96711 cumulative IPC: 1.21979 (Simulation time: 0 hr 11 min 6 sec) 
Heartbeat CPU  0 instructions:  352000000 cycles:  250134006 heartbeat IPC: 0.96220 cumulative IPC: 1.21850 (Simulation time: 0 hr 11 min 8 sec) 
Heartbeat CPU  0 instructions:  353000001 cycles:  250876749 heartbeat IPC: 1.34636 cumulative IPC: 1.21896 (Simulation time: 0 hr 11 min 10 sec) 
Heartbeat CPU  0 instructions:  354000000 cycles:  251471173 heartbeat IPC: 1.68230 cumulative IPC: 1.22028 (Simulation time: 0 hr 11 min 12 sec) 
Heartbeat CPU  0 instructions:  355000002 cycles:  252267490 heartbeat IPC: 1.25578 cumulative IPC: 1.22041 (Simulation time: 0 hr 11 min 14 sec) 
Heartbeat CPU  0 instructions:  356000000 cycles:  253279189 heartbeat IPC: 0.98843 cumulative IPC: 1.21930 (Simulation time: 0 hr 11 min 16 sec) 
Heartbeat CPU  0 instructions:  357000000 cycles:  254313156 heartbeat IPC: 0.96715 cumulative IPC: 1.21806 (Simulation time: 0 hr 11 min 19 sec) 
Heartbeat CPU  0 instructions:  358000002 cycles:  255097878 heartbeat IPC: 1.27434 cumulative IPC: 1.21827 (Simulation time: 0 hr 11 min 21 sec) 
Heartbeat CPU  0 instructions:  359000000 cycles:  255691830 heartbeat IPC: 1.68363 cumulative IPC: 1.21957 (Simulation time: 0 hr 11 min 23 sec) 
Heartbeat CPU  0 instructions:  360000000 cycles:  256448528 heartbeat IPC: 1.32153 cumulative IPC: 1.21993 (Simulation time: 0 hr 11 min 25 sec) 
Heartbeat CPU  0 instructions:  361000002 cycles:  257415053 heartbeat IPC: 1.03464 cumulative IPC: 1.21910 (Simulation time: 0 hr 11 min 27 sec) 
Heartbeat CPU  0 instructions:  362000001 cycles:  258369231 heartbeat IPC: 1.04802 cumulative IPC: 1.21834 (Simulation time: 0 hr 11 min 30 sec) 
Heartbeat CPU  0 instructions:  363000002 cycles:  259349280 heartbeat IPC: 1.02036 cumulative IPC: 1.21744 (Simulation time: 0 hr 11 min 32 sec) 
Heartbeat CPU  0 instructions:  364000000 cycles:  260078278 heartbeat IPC: 1.37174 cumulative IPC: 1.21796 (Simulation time: 0 hr 11 min 34 sec) 
Heartbeat CPU  0 instructions:  365000002 cycles:  260672839 heartbeat IPC: 1.68192 cumulative IPC: 1.21923 (Simulation time: 0 hr 11 min 36 sec) 
Heartbeat CPU  0 instructions:  366000000 cycles:  261596367 heartbeat IPC: 1.08280 cumulative IPC: 1.21865 (Simulation time: 0 hr 11 min 38 sec) 
Heartbeat CPU  0 instructions:  367000000 cycles:  262657598 heartbeat IPC: 0.94230 cumulative IPC: 1.21731 (Simulation time: 0 hr 11 min 40 sec) 
Heartbeat CPU  0 instructions:  368000000 cycles:  263710782 heartbeat IPC: 0.94950 cumulative IPC: 1.21603 (Simulation time: 0 hr 11 min 42 sec) 
Heartbeat CPU  0 instructions:  369000001 cycles:  264467927 heartbeat IPC: 1.32075 cumulative IPC: 1.21639 (Simulation time: 0 hr 11 min 44 sec) 
Heartbeat CPU  0 instructions:  370000001 cycles:  265060243 heartbeat IPC: 1.68829 cumulative IPC: 1.21765 (Simulation time: 0 hr 11 min 46 sec) 
Heartbeat CPU  0 instructions:  371000000 cycles:  265994624 heartbeat IPC: 1.07023 cumulative IPC: 1.21703 (Simulation time: 0 hr 11 min 48 sec) 
Heartbeat CPU  0 instructions:  372000000 cycles:  267190871 heartbeat IPC: 0.83595 cumulative IPC: 1.21500 (Simulation time: 0 hr 11 min 51 sec) 
Heartbeat CPU  0 instructions:  373000001 cycles:  268200718 heartbeat IPC: 0.99025 cumulative IPC: 1.21399 (Simulation time: 0 hr 11 min 53 sec) 
Heartbeat CPU  0 instructions:  374000001 cycles:  268829799 heartbeat IPC: 1.58962 cumulative IPC: 1.21504 (Simulation time: 0 hr 11 min 55 sec) 
Heartbeat CPU  0 instructions:  375000000 cycles:  269421341 heartbeat IPC: 1.69050 cumulative IPC: 1.21628 (Simulation time: 0 hr 11 min 57 sec) 
Heartbeat CPU  0 instructions:  376000000 cycles:  270595986 heartbeat IPC: 0.85132 cumulative IPC: 1.21439 (Simulation time: 0 hr 11 min 59 sec) 
Heartbeat CPU  0 instructions:  377000001 cycles:  271776949 heartbeat IPC: 0.84677 cumulative IPC: 1.21249 (Simulation time: 0 hr 12 min 1 sec) 
Heartbeat CPU  0 instructions:  378000002 cycles:  272559464 heartbeat IPC: 1.27793 cumulative IPC: 1.21272 (Simulation time: 0 hr 12 min 3 sec) 
Heartbeat CPU  0 instructions:  379000001 cycles:  273150862 heartbeat IPC: 1.69091 cumulative IPC: 1.21395 (Simulation time: 0 hr 12 min 5 sec) 
Heartbeat CPU  0 instructions:  380000000 cycles:  273955840 heartbeat IPC: 1.24227 cumulative IPC: 1.21405 (Simulation time: 0 hr 12 min 7 sec) 
Heartbeat CPU  0 instructions:  381000001 cycles:  275083958 heartbeat IPC: 0.88643 cumulative IPC: 1.21245 (Simulation time: 0 hr 12 min 9 sec) 
Heartbeat CPU  0 instructions:  382000003 cycles:  276148043 heartbeat IPC: 0.93978 cumulative IPC: 1.21121 (Simulation time: 0 hr 12 min 11 sec) 
Heartbeat CPU  0 instructions:  383000000 cycles:  276888206 heartbeat IPC: 1.35105 cumulative IPC: 1.21165 (Simulation time: 0 hr 12 min 14 sec) 
Heartbeat CPU  0 instructions:  384000000 cycles:  277481226 heartbeat IPC: 1.68628 cumulative IPC: 1.21285 (Simulation time: 0 hr 12 min 16 sec) 
Heartbeat CPU  0 instructions:  385000000 cycles:  278478251 heartbeat IPC: 1.00298 cumulative IPC: 1.21196 (Simulation time: 0 hr 12 min 18 sec) 
Heartbeat CPU  0 instructions:  386000000 cycles:  279698625 heartbeat IPC: 0.81942 cumulative IPC: 1.20993 (Simulation time: 0 hr 12 min 20 sec) 
Heartbeat CPU  0 instructions:  387000000 cycles:  280737709 heartbeat IPC: 0.96239 cumulative IPC: 1.20885 (Simulation time: 0 hr 12 min 22 sec) 
Heartbeat CPU  0 instructions:  388000000 cycles:  281386304 heartbeat IPC: 1.54179 cumulative IPC: 1.20976 (Simulation time: 0 hr 12 min 24 sec) 
Heartbeat CPU  0 instructions:  389000000 cycles:  281977778 heartbeat IPC: 1.69069 cumulative IPC: 1.21095 (Simulation time: 0 hr 12 min 26 sec) 
Heartbeat CPU  0 instructions:  390000003 cycles:  283136700 heartbeat IPC: 0.86287 cumulative IPC: 1.20927 (Simulation time: 0 hr 12 min 28 sec) 
Heartbeat CPU  0 instructions:  391000003 cycles:  284379864 heartbeat IPC: 0.80440 cumulative IPC: 1.20718 (Simulation time: 0 hr 12 min 31 sec) 
Heartbeat CPU  0 instructions:  392000000 cycles:  285243586 heartbeat IPC: 1.15778 cumulative IPC: 1.20700 (Simulation time: 0 hr 12 min 33 sec) 
Heartbeat CPU  0 instructions:  393000001 cycles:  285834753 heartbeat IPC: 1.69157 cumulative IPC: 1.20818 (Simulation time: 0 hr 12 min 35 sec) 
Heartbeat CPU  0 instructions:  394000002 cycles:  286595141 heartbeat IPC: 1.31512 cumulative IPC: 1.20852 (Simulation time: 0 hr 12 min 37 sec) 
Heartbeat CPU  0 instructions:  395000002 cycles:  287766086 heartbeat IPC: 0.85401 cumulative IPC: 1.20682 (Simulation time: 0 hr 12 min 39 sec) 
Heartbeat CPU  0 instructions:  396000000 cycles:  288993304 heartbeat IPC: 0.81485 cumulative IPC: 1.20486 (Simulation time: 0 hr 12 min 41 sec) 
Heartbeat CPU  0 instructions:  397000000 cycles:  289905404 heartbeat IPC: 1.09637 cumulative IPC: 1.20446 (Simulation time: 0 hr 12 min 44 sec) 
Heartbeat CPU  0 instructions:  398000001 cycles:  290658473 heartbeat IPC: 1.32790 cumulative IPC: 1.20484 (Simulation time: 0 hr 12 min 46 sec) 
Heartbeat CPU  0 instructions:  399000000 cycles:  291250926 heartbeat IPC: 1.68790 cumulative IPC: 1.20599 (Simulation time: 0 hr 12 min 48 sec) 
Heartbeat CPU  0 instructions:  400000000 cycles:  292026210 heartbeat IPC: 1.28985 cumulative IPC: 1.20625 (Simulation time: 0 hr 12 min 50 sec) 
Heartbeat CPU  0 instructions:  401000002 cycles:  293119506 heartbeat IPC: 0.91467 cumulative IPC: 1.20498 (Simulation time: 0 hr 12 min 52 sec) 
Heartbeat CPU  0 instructions:  402000002 cycles:  294156960 heartbeat IPC: 0.96390 cumulative IPC: 1.20398 (Simulation time: 0 hr 12 min 55 sec) 
Heartbeat CPU  0 instructions:  403000002 cycles:  295132691 heartbeat IPC: 1.02487 cumulative IPC: 1.20329 (Simulation time: 0 hr 12 min 57 sec) 
Heartbeat CPU  0 instructions:  404000000 cycles:  295744279 heartbeat IPC: 1.63508 cumulative IPC: 1.20433 (Simulation time: 0 hr 12 min 59 sec) 
Heartbeat CPU  0 instructions:  405000001 cycles:  296365141 heartbeat IPC: 1.61067 cumulative IPC: 1.20533 (Simulation time: 0 hr 13 min 1 sec) 
Heartbeat CPU  0 instructions:  406000003 cycles:  297480955 heartbeat IPC: 0.89621 cumulative IPC: 1.20397 (Simulation time: 0 hr 13 min 3 sec) 
Heartbeat CPU  0 instructions:  407000000 cycles:  298536634 heartbeat IPC: 0.94725 cumulative IPC: 1.20291 (Simulation time: 0 hr 13 min 5 sec) 
Heartbeat CPU  0 instructions:  408000000 cycles:  299523678 heartbeat IPC: 1.01313 cumulative IPC: 1.20218 (Simulation time: 0 hr 13 min 6 sec) 
Heartbeat CPU  0 instructions:  409000001 cycles:  300232413 heartbeat IPC: 1.41097 cumulative IPC: 1.20275 (Simulation time: 0 hr 13 min 8 sec) 
Heartbeat CPU  0 instructions:  410000002 cycles:  300825616 heartbeat IPC: 1.68577 cumulative IPC: 1.20387 (Simulation time: 0 hr 13 min 10 sec) 
Heartbeat CPU  0 instructions:  411000001 cycles:  301854385 heartbeat IPC: 0.97203 cumulative IPC: 1.20294 (Simulation time: 0 hr 13 min 12 sec) 
Heartbeat CPU  0 instructions:  412000000 cycles:  302973040 heartbeat IPC: 0.89393 cumulative IPC: 1.20161 (Simulation time: 0 hr 13 min 14 sec) 
Heartbeat CPU  0 instructions:  413000001 cycles:  304001942 heartbeat IPC: 0.97191 cumulative IPC: 1.20071 (Simulation time: 0 hr 13 min 16 sec) 
Heartbeat CPU  0 instructions:  414000001 cycles:  304716683 heartbeat IPC: 1.39911 cumulative IPC: 1.20125 (Simulation time: 0 hr 13 min 18 sec) 
Heartbeat CPU  0 instructions:  415000000 cycles:  305308892 heartbeat IPC: 1.68859 cumulative IPC: 1.20235 (Simulation time: 0 hr 13 min 21 sec) 
Heartbeat CPU  0 instructions:  416000000 cycles:  306241121 heartbeat IPC: 1.07270 cumulative IPC: 1.20189 (Simulation time: 0 hr 13 min 23 sec) 
Heartbeat CPU  0 instructions:  417000003 cycles:  307278538 heartbeat IPC: 0.96394 cumulative IPC: 1.20096 (Simulation time: 0 hr 13 min 25 sec) 
Heartbeat CPU  0 instructions:  418000001 cycles:  308346672 heartbeat IPC: 0.93621 cumulative IPC: 1.19989 (Simulation time: 0 hr 13 min 27 sec) 
Heartbeat CPU  0 instructions:  419000000 cycles:  309357630 heartbeat IPC: 0.98916 cumulative IPC: 1.19909 (Simulation time: 0 hr 13 min 29 sec) 
Heartbeat CPU  0 instructions:  420000000 cycles:  310064714 heartbeat IPC: 1.41426 cumulative IPC: 1.19966 (Simulation time: 0 hr 13 min 31 sec) 
Heartbeat CPU  0 instructions:  421000001 cycles:  310654922 heartbeat IPC: 1.69432 cumulative IPC: 1.20075 (Simulation time: 0 hr 13 min 33 sec) 
Heartbeat CPU  0 instructions:  422000000 cycles:  311562805 heartbeat IPC: 1.10146 cumulative IPC: 1.20041 (Simulation time: 0 hr 13 min 35 sec) 
Heartbeat CPU  0 instructions:  423000000 cycles:  312502373 heartbeat IPC: 1.06432 cumulative IPC: 1.19994 (Simulation time: 0 hr 13 min 37 sec) 
Heartbeat CPU  0 instructions:  424000000 cycles:  313448088 heartbeat IPC: 1.05740 cumulative IPC: 1.19944 (Simulation time: 0 hr 13 min 39 sec) 
Heartbeat CPU  0 instructions:  425000001 cycles:  314460247 heartbeat IPC: 0.98799 cumulative IPC: 1.19865 (Simulation time: 0 hr 13 min 42 sec) 
Heartbeat CPU  0 instructions:  426000001 cycles:  315342649 heartbeat IPC: 1.13327 cumulative IPC: 1.19844 (Simulation time: 0 hr 13 min 44 sec) 
Heartbeat CPU  0 instructions:  427000000 cycles:  315933751 heartbeat IPC: 1.69175 cumulative IPC: 1.19951 (Simulation time: 0 hr 13 min 46 sec) 
Heartbeat CPU  0 instructions:  428000000 cycles:  316627668 heartbeat IPC: 1.44109 cumulative IPC: 1.20012 (Simulation time: 0 hr 13 min 48 sec) 
Heartbeat CPU  0 instructions:  429000002 cycles:  317578519 heartbeat IPC: 1.05169 cumulative IPC: 1.19961 (Simulation time: 0 hr 13 min 50 sec) 
Heartbeat CPU  0 instructions:  430000001 cycles:  318519923 heartbeat IPC: 1.06224 cumulative IPC: 1.19914 (Simulation time: 0 hr 13 min 52 sec) 
Heartbeat CPU  0 instructions:  431000001 cycles:  319446443 heartbeat IPC: 1.07931 cumulative IPC: 1.19874 (Simulation time: 0 hr 13 min 55 sec) 
Heartbeat CPU  0 instructions:  432000000 cycles:  320444457 heartbeat IPC: 1.00199 cumulative IPC: 1.19803 (Simulation time: 0 hr 13 min 57 sec) 
Heartbeat CPU  0 instructions:  433000003 cycles:  321142475 heartbeat IPC: 1.43263 cumulative IPC: 1.19862 (Simulation time: 0 hr 13 min 59 sec) 
Heartbeat CPU  0 instructions:  434000003 cycles:  321732785 heartbeat IPC: 1.69403 cumulative IPC: 1.19967 (Simulation time: 0 hr 14 min 1 sec) 
Heartbeat CPU  0 instructions:  435000000 cycles:  322624960 heartbeat IPC: 1.12085 cumulative IPC: 1.19941 (Simulation time: 0 hr 14 min 3 sec) 
Heartbeat CPU  0 instructions:  436000000 cycles:  323553982 heartbeat IPC: 1.07640 cumulative IPC: 1.19901 (Simulation time: 0 hr 14 min 5 sec) 
Heartbeat CPU  0 instructions:  437000002 cycles:  324489667 heartbeat IPC: 1.06874 cumulative IPC: 1.19857 (Simulation time: 0 hr 14 min 8 sec) 
Heartbeat CPU  0 instructions:  438000000 cycles:  325474226 heartbeat IPC: 1.01568 cumulative IPC: 1.19794 (Simulation time: 0 hr 14 min 10 sec) 
Heartbeat CPU  0 instructions:  439000002 cycles:  326167605 heartbeat IPC: 1.44222 cumulative IPC: 1.19853 (Simulation time: 0 hr 14 min 12 sec) 
Heartbeat CPU  0 instructions:  440000000 cycles:  326760698 heartbeat IPC: 1.68607 cumulative IPC: 1.19955 (Simulation time: 0 hr 14 min 14 sec) 
Heartbeat CPU  0 instructions:  441000002 cycles:  327640501 heartbeat IPC: 1.13662 cumulative IPC: 1.19936 (Simulation time: 0 hr 14 min 16 sec) 
Heartbeat CPU  0 instructions:  442000000 cycles:  328570686 heartbeat IPC: 1.07505 cumulative IPC: 1.19895 (Simulation time: 0 hr 14 min 18 sec) 
Heartbeat CPU  0 instructions:  443000002 cycles:  329510443 heartbeat IPC: 1.06411 cumulative IPC: 1.19851 (Simulation time: 0 hr 14 min 19 sec) 
Heartbeat CPU  0 instructions:  444000000 cycles:  330514304 heartbeat IPC: 0.99615 cumulative IPC: 1.19780 (Simulation time: 0 hr 14 min 21 sec) 
Heartbeat CPU  0 instructions:  445000000 cycles:  331181177 heartbeat IPC: 1.49954 cumulative IPC: 1.19850 (Simulation time: 0 hr 14 min 23 sec) 
Heartbeat CPU  0 instructions:  446000001 cycles:  331772876 heartbeat IPC: 1.69005 cumulative IPC: 1.19951 (Simulation time: 0 hr 14 min 25 sec) 
Heartbeat CPU  0 instructions:  447000003 cycles:  332675708 heartbeat IPC: 1.10763 cumulative IPC: 1.19922 (Simulation time: 0 hr 14 min 27 sec) 
Heartbeat CPU  0 instructions:  448000000 cycles:  333600438 heartbeat IPC: 1.08139 cumulative IPC: 1.19885 (Simulation time: 0 hr 14 min 29 sec) 
Heartbeat CPU  0 instructions:  449000001 cycles:  334529969 heartbeat IPC: 1.07581 cumulative IPC: 1.19846 (Simulation time: 0 hr 14 min 32 sec) 
Heartbeat CPU  0 instructions:  450000002 cycles:  335534051 heartbeat IPC: 0.99594 cumulative IPC: 1.19776 (Simulation time: 0 hr 14 min 34 sec) 
Heartbeat CPU  0 instructions:  451000003 cycles:  336376354 heartbeat IPC: 1.18722 cumulative IPC: 1.19773 (Simulation time: 0 hr 14 min 36 sec) 
Heartbeat CPU  0 instructions:  452000000 cycles:  336970046 heartbeat IPC: 1.68437 cumulative IPC: 1.19871 (Simulation time: 0 hr 14 min 38 sec) 
Heartbeat CPU  0 instructions:  453000000 cycles:  337672860 heartbeat IPC: 1.42285 cumulative IPC: 1.19925 (Simulation time: 0 hr 14 min 40 sec) 
Heartbeat CPU  0 instructions:  454000002 cycles:  338599549 heartbeat IPC: 1.07911 cumulative IPC: 1.19887 (Simulation time: 0 hr 14 min 42 sec) 
Heartbeat CPU  0 instructions:  455000002 cycles:  339525459 heartbeat IPC: 1.08002 cumulative IPC: 1.19850 (Simulation time: 0 hr 14 min 44 sec) 
Heartbeat CPU  0 instructions:  456000000 cycles:  340435479 heartbeat IPC: 1.09887 cumulative IPC: 1.19820 (Simulation time: 0 hr 14 min 46 sec) 
Heartbeat CPU  0 instructions:  457000003 cycles:  341402750 heartbeat IPC: 1.03384 cumulative IPC: 1.19766 (Simulation time: 0 hr 14 min 48 sec) 
Heartbeat CPU  0 instructions:  458000001 cycles:  342114375 heartbeat IPC: 1.40523 cumulative IPC: 1.19816 (Simulation time: 0 hr 14 min 50 sec) 
Heartbeat CPU  0 instructions:  459000000 cycles:  342706956 heartbeat IPC: 1.68753 cumulative IPC: 1.19913 (Simulation time: 0 hr 14 min 53 sec) 
Heartbeat CPU  0 instructions:  460000000 cycles:  343591244 heartbeat IPC: 1.13085 cumulative IPC: 1.19892 (Simulation time: 0 hr 14 min 55 sec) 
Heartbeat CPU  0 instructions:  461000002 cycles:  344521653 heartbeat IPC: 1.07480 cumulative IPC: 1.19854 (Simulation time: 0 hr 14 min 57 sec) 
Heartbeat CPU  0 instructions:  462000000 cycles:  345428119 heartbeat IPC: 1.10318 cumulative IPC: 1.19825 (Simulation time: 0 hr 14 min 59 sec) 
Heartbeat CPU  0 instructions:  463000000 cycles:  346412882 heartbeat IPC: 1.01547 cumulative IPC: 1.19766 (Simulation time: 0 hr 15 min 1 sec) 
Heartbeat CPU  0 instructions:  464000000 cycles:  347106956 heartbeat IPC: 1.44077 cumulative IPC: 1.19822 (Simulation time: 0 hr 15 min 3 sec) 
Heartbeat CPU  0 instructions:  465000000 cycles:  347700781 heartbeat IPC: 1.68400 cumulative IPC: 1.19916 (Simulation time: 0 hr 15 min 5 sec) 
Heartbeat CPU  0 instructions:  466000002 cycles:  348564009 heartbeat IPC: 1.15844 cumulative IPC: 1.19905 (Simulation time: 0 hr 15 min 7 sec) 
Heartbeat CPU  0 instructions:  467000002 cycles:  349494904 heartbeat IPC: 1.07423 cumulative IPC: 1.19867 (Simulation time: 0 hr 15 min 9 sec) 
Heartbeat CPU  0 instructions:  468000000 cycles:  350467276 heartbeat IPC: 1.02841 cumulative IPC: 1.19813 (Simulation time: 0 hr 15 min 11 sec) 
Heartbeat CPU  0 instructions:  469000001 cycles:  351340992 heartbeat IPC: 1.14454 cumulative IPC: 1.19798 (Simulation time: 0 hr 15 min 13 sec) 
Heartbeat CPU  0 instructions:  470000002 cycles:  351934263 heartbeat IPC: 1.68557 cumulative IPC: 1.19892 (Simulation time: 0 hr 15 min 15 sec) 
Heartbeat CPU  0 instructions:  471000001 cycles:  352598691 heartbeat IPC: 1.50505 cumulative IPC: 1.19957 (Simulation time: 0 hr 15 min 17 sec) 
Heartbeat CPU  0 instructions:  472000000 cycles:  353543819 heartbeat IPC: 1.05806 cumulative IPC: 1.19914 (Simulation time: 0 hr 15 min 19 sec) 
Heartbeat CPU  0 instructions:  473000003 cycles:  354468713 heartbeat IPC: 1.08121 cumulative IPC: 1.19879 (Simulation time: 0 hr 15 min 21 sec) 
Heartbeat CPU  0 instructions:  474000003 cycles:  355513274 heartbeat IPC: 0.95734 cumulative IPC: 1.19798 (Simulation time: 0 hr 15 min 23 sec) 
Heartbeat CPU  0 instructions:  475000003 cycles:  356356337 heartbeat IPC: 1.18615 cumulative IPC: 1.19795 (Simulation time: 0 hr 15 min 25 sec) 
Heartbeat CPU  0 instructions:  476000000 cycles:  356997506 heartbeat IPC: 1.55965 cumulative IPC: 1.19869 (Simulation time: 0 hr 15 min 27 sec) 
Heartbeat CPU  0 instructions:  477000000 cycles:  357590269 heartbeat IPC: 1.68701 cumulative IPC: 1.19961 (Simulation time: 0 hr 15 min 29 sec) 
Heartbeat CPU  0 instructions:  478000002 cycles:  358514070 heartbeat IPC: 1.08249 cumulative IPC: 1.19927 (Simulation time: 0 hr 15 min 31 sec) 
Heartbeat CPU  0 instructions:  479000003 cycles:  359438564 heartbeat IPC: 1.08167 cumulative IPC: 1.19893 (Simulation time: 0 hr 15 min 33 sec) 
Heartbeat CPU  0 instructions:  480000000 cycles:  360414414 heartbeat IPC: 1.02474 cumulative IPC: 1.19839 (Simulation time: 0 hr 15 min 35 sec) 
Heartbeat CPU  0 instructions:  481000002 cycles:  361185655 heartbeat IPC: 1.29661 cumulative IPC: 1.19863 (Simulation time: 0 hr 15 min 37 sec) 
Heartbeat CPU  0 instructions:  482000002 cycles:  361779145 heartbeat IPC: 1.68495 cumulative IPC: 1.19953 (Simulation time: 0 hr 15 min 40 sec) 
Heartbeat CPU  0 instructions:  483000003 cycles:  362583231 heartbeat IPC: 1.24365 cumulative IPC: 1.19964 (Simulation time: 0 hr 15 min 42 sec) 
Heartbeat CPU  0 instructions:  484000000 cycles:  363496399 heartbeat IPC: 1.09509 cumulative IPC: 1.19935 (Simulation time: 0 hr 15 min 44 sec) 
Heartbeat CPU  0 instructions:  485000003 cycles:  364415903 heartbeat IPC: 1.08755 cumulative IPC: 1.19903 (Simulation time: 0 hr 15 min 46 sec) 
Heartbeat CPU  0 instructions:  486000002 cycles:  365383921 heartbeat IPC: 1.03304 cumulative IPC: 1.19853 (Simulation time: 0 hr 15 min 48 sec) 
Heartbeat CPU  0 instructions:  487000002 cycles:  366323418 heartbeat IPC: 1.06440 cumulative IPC: 1.19814 (Simulation time: 0 hr 15 min 51 sec) 
Heartbeat CPU  0 instructions:  488000000 cycles:  366914931 heartbeat IPC: 1.69058 cumulative IPC: 1.19904 (Simulation time: 0 hr 15 min 53 sec) 
Heartbeat CPU  0 instructions:  489000000 cycles:  367575727 heartbeat IPC: 1.51333 cumulative IPC: 1.19968 (Simulation time: 0 hr 15 min 55 sec) 
Heartbeat CPU  0 instructions:  490000000 cycles:  368509899 heartbeat IPC: 1.07047 cumulative IPC: 1.19931 (Simulation time: 0 hr 15 min 57 sec) 
Heartbeat CPU  0 instructions:  491000002 cycles:  369436839 heartbeat IPC: 1.07882 cumulative IPC: 1.19896 (Simulation time: 0 hr 15 min 59 sec) 
Heartbeat CPU  0 instructions:  492000000 cycles:  370390866 heartbeat IPC: 1.04819 cumulative IPC: 1.19852 (Simulation time: 0 hr 16 min 1 sec) 
Heartbeat CPU  0 instructions:  493000002 cycles:  371384050 heartbeat IPC: 1.00686 cumulative IPC: 1.19794 (Simulation time: 0 hr 16 min 3 sec) 
Heartbeat CPU  0 instructions:  494000000 cycles:  372018327 heartbeat IPC: 1.57660 cumulative IPC: 1.19868 (Simulation time: 0 hr 16 min 6 sec) 
Heartbeat CPU  0 instructions:  495000001 cycles:  372609240 heartbeat IPC: 1.69230 cumulative IPC: 1.19956 (Simulation time: 0 hr 16 min 8 sec) 
Heartbeat CPU  0 instructions:  496000000 cycles:  373544995 heartbeat IPC: 1.06865 cumulative IPC: 1.19919 (Simulation time: 0 hr 16 min 10 sec) 
Heartbeat CPU  0 instructions:  497000001 cycles:  374480090 heartbeat IPC: 1.06941 cumulative IPC: 1.19882 (Simulation time: 0 hr 16 min 12 sec) 
Heartbeat CPU  0 instructions:  498000000 cycles:  375415295 heartbeat IPC: 1.06928 cumulative IPC: 1.19846 (Simulation time: 0 hr 16 min 14 sec) 
Heartbeat CPU  0 instructions:  499000002 cycles:  376403765 heartbeat IPC: 1.01167 cumulative IPC: 1.19790 (Simulation time: 0 hr 16 min 16 sec) 
Heartbeat CPU  0 instructions:  500000000 cycles:  377151651 heartbeat IPC: 1.33710 cumulative IPC: 1.19822 (Simulation time: 0 hr 16 min 18 sec) 
Heartbeat CPU  0 instructions:  501000002 cycles:  377744148 heartbeat IPC: 1.68778 cumulative IPC: 1.19908 (Simulation time: 0 hr 16 min 20 sec) 
Heartbeat CPU  0 instructions:  502000000 cycles:  378619115 heartbeat IPC: 1.14290 cumulative IPC: 1.19894 (Simulation time: 0 hr 16 min 22 sec) 
Heartbeat CPU  0 instructions:  503000000 cycles:  379533478 heartbeat IPC: 1.09366 cumulative IPC: 1.19865 (Simulation time: 0 hr 16 min 24 sec) 
Heartbeat CPU  0 instructions:  504000000 cycles:  380469232 heartbeat IPC: 1.06866 cumulative IPC: 1.19829 (Simulation time: 0 hr 16 min 26 sec) 
Heartbeat CPU  0 instructions:  505000000 cycles:  381451529 heartbeat IPC: 1.01802 cumulative IPC: 1.19777 (Simulation time: 0 hr 16 min 28 sec) 
Heartbeat CPU  0 instructions:  506000001 cycles:  382408693 heartbeat IPC: 1.04475 cumulative IPC: 1.19733 (Simulation time: 0 hr 16 min 30 sec) 
Heartbeat CPU  0 instructions:  507000000 cycles:  383001419 heartbeat IPC: 1.68712 cumulative IPC: 1.19819 (Simulation time: 0 hr 16 min 32 sec) 
Heartbeat CPU  0 instructions:  508000000 cycles:  383689606 heartbeat IPC: 1.45309 cumulative IPC: 1.19870 (Simulation time: 0 hr 16 min 34 sec) 
Heartbeat CPU  0 instructions:  509000003 cycles:  384639728 heartbeat IPC: 1.05250 cumulative IPC: 1.19830 (Simulation time: 0 hr 16 min 36 sec) 
Heartbeat CPU  0 instructions:  510000002 cycles:  385548118 heartbeat IPC: 1.10085 cumulative IPC: 1.19804 (Simulation time: 0 hr 16 min 38 sec) 
Heartbeat CPU  0 instructions:  511000001 cycles:  386479278 heartbeat IPC: 1.07393 cumulative IPC: 1.19770 (Simulation time: 0 hr 16 min 40 sec) 
Heartbeat CPU  0 instructions:  512000000 cycles:  387556751 heartbeat IPC: 0.92810 cumulative IPC: 1.19686 (Simulation time: 0 hr 16 min 42 sec) 
Heartbeat CPU  0 instructions:  513000000 cycles:  388375763 heartbeat IPC: 1.22098 cumulative IPC: 1.19692 (Simulation time: 0 hr 16 min 44 sec) 
Heartbeat CPU  0 instructions:  514000000 cycles:  388969831 heartbeat IPC: 1.68331 cumulative IPC: 1.19775 (Simulation time: 0 hr 16 min 46 sec) 
Heartbeat CPU  0 instructions:  515000000 cycles:  389729450 heartbeat IPC: 1.31645 cumulative IPC: 1.19801 (Simulation time: 0 hr 16 min 48 sec) 
Heartbeat CPU  0 instructions:  516000000 cycles:  390670125 heartbeat IPC: 1.06307 cumulative IPC: 1.19765 (Simulation time: 0 hr 16 min 50 sec) 
Heartbeat CPU  0 instructions:  517000000 cycles:  391571333 heartbeat IPC: 1.10962 cumulative IPC: 1.19742 (Simulation time: 0 hr 16 min 53 sec) 
Heartbeat CPU  0 instructions:  518000003 cycles:  392508234 heartbeat IPC: 1.06735 cumulative IPC: 1.19707 (Simulation time: 0 hr 16 min 55 sec) 
Heartbeat CPU  0 instructions:  519000002 cycles:  393553919 heartbeat IPC: 0.95631 cumulative IPC: 1.19635 (Simulation time: 0 hr 16 min 57 sec) 
Heartbeat CPU  0 instructions:  520000000 cycles:  394341806 heartbeat IPC: 1.26921 cumulative IPC: 1.19651 (Simulation time: 0 hr 16 min 59 sec) 
Heartbeat CPU  0 instructions:  521000003 cycles:  394937154 heartbeat IPC: 1.67969 cumulative IPC: 1.19733 (Simulation time: 0 hr 17 min 1 sec) 
Heartbeat CPU  0 instructions:  522000001 cycles:  395731217 heartbeat IPC: 1.25934 cumulative IPC: 1.19747 (Simulation time: 0 hr 17 min 4 sec) 
Heartbeat CPU  0 instructions:  523000000 cycles:  396662221 heartbeat IPC: 1.07411 cumulative IPC: 1.19715 (Simulation time: 0 hr 17 min 6 sec) 
Heartbeat CPU  0 instructions:  524000000 cycles:  397557300 heartbeat IPC: 1.11722 cumulative IPC: 1.19694 (Simulation time: 0 hr 17 min 8 sec) 
Heartbeat CPU  0 instructions:  525000001 cycles:  398504092 heartbeat IPC: 1.05620 cumulative IPC: 1.19657 (Simulation time: 0 hr 17 min 10 sec) 
Heartbeat CPU  0 instructions:  526000002 cycles:  399518076 heartbeat IPC: 0.98621 cumulative IPC: 1.19597 (Simulation time: 0 hr 17 min 12 sec) 
Heartbeat CPU  0 instructions:  527000002 cycles:  400280527 heartbeat IPC: 1.31156 cumulative IPC: 1.19622 (Simulation time: 0 hr 17 min 14 sec) 
Heartbeat CPU  0 instructions:  528000000 cycles:  400875003 heartbeat IPC: 1.68215 cumulative IPC: 1.19703 (Simulation time: 0 hr 17 min 16 sec) 
Heartbeat CPU  0 instructions:  529000003 cycles:  401710303 heartbeat IPC: 1.19718 cumulative IPC: 1.19703 (Simulation time: 0 hr 17 min 19 sec) 
Heartbeat CPU  0 instructions:  530000003 cycles:  402630924 heartbeat IPC: 1.08622 cumulative IPC: 1.19674 (Simulation time: 0 hr 17 min 21 sec) 
Heartbeat CPU  0 instructions:  531000002 cycles:  403536976 heartbeat IPC: 1.10369 cumulative IPC: 1.19651 (Simulation time: 0 hr 17 min 23 sec) 
Heartbeat CPU  0 instructions:  532000000 cycles:  404484209 heartbeat IPC: 1.05570 cumulative IPC: 1.19614 (Simulation time: 0 hr 17 min 25 sec) 
Heartbeat CPU  0 instructions:  533000000 cycles:  405541231 heartbeat IPC: 0.94605 cumulative IPC: 1.19541 (Simulation time: 0 hr 17 min 27 sec) 
[...]
L2C -61>	(-1,565)	(55,48)	(1,704)	(60,30)	(2,144)	(-6,17)	(40,8)	(14,1)	(47,43)	(53,18)	(0,48)	(3,51)	(56,50)	(34,20)	(52,22)	(50,15)	
L2C -60>	(-29,29)	(52,49)	(1,485)	(18,41)	(58,43)	(2,121)	(-5,25)	(3,67)	(60,86)	(-21,12)	(-1,96)	(42,30)	(-23,9)	(-2,57)	(8,1)	(24,20)	
L2C -59>	(60,10)	(3,43)	(26,36)	(35,27)	(12,1)	(-21,9)	(-1,27)	(21,26)	(34,50)	(38,16)	(25,24)	(1,425)	(49,44)	(56,17)	(10,29)	(-3,60)	
L2C -58>	(58,103)	(57,54)	(55,32)	(-5,43)	(42,19)	(48,23)	(56,85)	(32,24)	(53,37)	(3,57)	(29,27)	(-2,90)	(0,32)	(1,336)	(24,1)	(47,36)	
L2C -57>	(2,1)	(59,22)	(55,90)	(-13,21)	(46,46)	(52,84)	(0,32)	(42,32)	(-8,34)	(1,425)	(-4,22)	(28,38)	(57,276)	(23,41)	(26,79)	(-1,134)	
L2C -56>	(-1,104)	(0,48)	(31,106)	(-2,37)	(41,1)	(1,397)	(60,52)	(-4,27)	(47,36)	(21,67)	(55,35)	(52,39)	(9,24)	(56,166)	(38,28)	(5,62)	
L2C -55>	(-7,47)	(-3,102)	(-1,173)	(53,63)	(1,429)	(56,50)	(60,71)	(18,1)	(52,83)	(-19,13)	(0,188)	(19,60)	(50,67)	(-8,72)	(41,50)	(-4,65)	
L2C -54>	(-3,99)	(1,427)	(38,50)	(-1,390)	(-6,65)	(59,28)	(-2,120)	(54,251)	(46,60)	(17,86)	(60,1)	(13,35)	(-9,37)	(44,105)	(2,111)	(28,46)	
L2C -53>	(37,38)	(39,39)	(1,371)	(52,67)	(55,43)	(26,52)	(-1,104)	(42,88)	(29,1)	(-5,49)	(-2,66)	(50,70)	(58,32)	(-10,35)	(32,30)	(57,29)	
L2C -52>	(-6,112)	(44,153)	(-4,69)	(-1,162)	(34,109)	(50,101)	(18,1)	(38,54)	(57,235)	(55,106)	(1,538)	(48,79)	(2,192)	(-10,59)	(60,51)	(20,68)	
L2C -51>	(48,47)	(1,459)	(-26,23)	(16,61)	(43,63)	(55,43)	(5,1)	(-21,12)	(49,97)	(56,38)	(-1,144)	(46,144)	(38,53)	(51,237)	(41,62)	(9,30)	
L2C -50>	(-7,108)	(-16,40)	(-3,136)	(39,99)	(-8,127)	(-5,155)	(-10,60)	(-59,1)	(1,466)	(34,85)	(53,48)	(31,72)	(40,59)	(60,37)	(24,82)	(42,94)	
L2C -49>	(-3,288)	(46,66)	(24,71)	(2,1)	(-6,136)	(-28,34)	(-7,114)	(-2,217)	(23,101)	(-8,211)	(60,69)	(54,140)	(28,115)	(47,180)	(26,119)	(-13,61)	
L2C -48>	(51,49)	(9,50)	(21,102)	(-1,263)	(11,39)	(47,91)	(16,1)	(-14,32)	(-22,11)	(-18,26)	(0,156)	(35,72)	(-13,57)	(-15,70)	(39,134)	(-9,104)	
L2C -47>	(-11,90)	(12,122)	(-13,120)	(44,214)	(-1,245)	(1,510)	(-8,199)	(45,98)	(14,56)	(60,84)	(39,185)	(23,100)	(2,1)	(30,46)	(-3,364)	(-5,250)	
L2C -46>	(5,79)	(-9,1)	(34,81)	(-13,84)	(1,510)	(-3,329)	(-1,293)	(49,125)	(-21,28)	(-39,17)	(-6,167)	(52,106)	(13,80)	(0,171)	(30,73)	(10,61)	
L2C -45>	(19,111)	(8,100)	(44,212)	(-10,119)	(1,488)	(52,95)	(32,1)	(47,121)	(11,60)	(6,98)	(-5,201)	(-2,341)	(45,255)	(53,90)	(-6,58)	(-4,113)	
L2C -44>	(17,1)	(-4,127)	(-15,99)	(-39,67)	(31,316)	(-29,41)	(-10,203)	(43,122)	(58,58)	(41,207)	(14,57)	(8,162)	(18,249)	(16,118)	(-18,103)	(1,592)	
L2C -43>	(35,66)	(56,62)	(38,78)	(60,26)	(-3,440)	(-1,1)	(20,63)	(3,136)	(46,70)	(25,53)	(-9,137)	(49,48)	(4,109)	(42,63)	(-5,197)	(1,487)	
L2C -42>	(44,153)	(18,1)	(1,606)	(-6,205)	(24,181)	(3,166)	(-21,86)	(-5,312)	(-8,258)	(36,161)	(58,65)	(-12,87)	(26,161)	(38,82)	(52,206)	(46,77)	
L2C -41>	(12,87)	(9,1)	(-11,137)	(25,105)	(18,133)	(11,71)	(49,146)	(36,261)	(50,74)	(30,90)	(3,108)	(-17,45)	(56,82)	(31,136)	(26,298)	(-10,179)	
L2C -40>	(-2,318)	(55,260)	(1,676)	(-4,174)	(35,88)	(58,48)	(27,134)	(44,91)	(-7,123)	(-20,60)	(12,1)	(-5,253)	(34,115)	(-18,61)	(-11,65)	(-8,220)	
L2C -39>	(24,236)	(-2,465)	(23,180)	(27,1)	(-11,318)	(26,301)	(0,342)	(-3,522)	(37,218)	(-5,833)	(40,119)	(5,255)	(35,131)	(-34,62)	(13,289)	(54,181)	
L2C -38>	(-1,630)	(-26,41)	(1,609)	(38,202)	(-6,239)	(-19,74)	(30,1)	(-5,393)	(47,160)	(39,155)	(23,246)	(-22,42)	(31,220)	(-14,143)	(18,96)	(44,191)	
L2C -37>	(-13,297)	(27,101)	(-1,248)	(35,1)	(-34,40)	(13,221)	(-2,500)	(36,181)	(-18,142)	(-8,324)	(-3,390)	(-5,497)	(23,154)	(49,142)	(11,143)	(48,107)	
L2C -36>	(1,652)	(-3,895)	(-16,253)	(-1,457)	(23,289)	(45,1)	(-5,616)	(-2,372)	(16,206)	(50,131)	(25,174)	(-33,38)	(-14,125)	(-11,422)	(19,113)	(39,205)	
L2C -35>	(16,98)	(-12,210)	(-1,1)	(8,157)	(1,678)	(21,187)	(-6,141)	(-15,115)	(49,64)	(4,91)	(17,106)	(-8,247)	(0,155)	(-13,197)	(-26,73)	(-18,111)	
L2C -34>	(2,266)	(-5,970)	(-3,748)	(-19,1)	(51,92)	(8,282)	(-21,231)	(-11,360)	(5,338)	(36,272)	(12,85)	(-12,252)	(-13,391)	(-2,740)	(-15,379)	(49,180)	
L2C -33>	(-18,188)	(7,209)	(-14,137)	(-41,1)	(20,217)	(17,98)	(-6,523)	(15,151)	(48,86)	(-22,84)	(-13,286)	(-9,216)	(36,161)	(51,126)	(9,114)	(-5,470)	
L2C -32>	(-7,452)	(1,823)	(-5,582)	(6,172)	(-13,322)	(-17,171)	(39,240)	(33,1)	(-10,498)	(-2,687)	(41,64)	(36,120)	(-8,400)	(27,138)	(37,184)	(23,141)	
L2C -31>	(-29,156)	(-23,1)	(-14,195)	(-5,1135)	(-3,1186)	(21,352)	(-13,714)	(-12,238)	(-32,62)	(-24,342)	(-18,364)	(-6,520)	(2,406)	(-11,899)	(-2,947)	(34,262)	
L2C -30>	(-3,502)	(-1,638)	(-13,316)	(2,282)	(-5,479)	(-16,157)	(44,187)	(7,152)	(-18,397)	(-26,202)	(-11,266)	(-8,475)	(-9,376)	(-21,346)	(1,1)	(-29,57)	
L2C -29>	(58,158)	(-16,392)	(5,272)	(30,1)	(-11,456)	(-13,1250)	(14,184)	(-4,582)	(27,269)	(28,180)	(-10,728)	(60,195)	(-21,426)	(42,351)	(-3,881)	(21,369)	
L2C -28>	(-4,444)	(44,1)	(25,227)	(-13,624)	(-3,1214)	(-2,779)	(18,263)	(7,239)	(46,269)	(-9,300)	(-16,569)	(50,121)	(28,503)	(-6,968)	(42,154)	(-11,686)	
L2C -27>	(1,808)	(-5,829)	(-20,591)	(-13,430)	(-8,793)	(5,1)	(40,196)	(-16,201)	(42,333)	(29,357)	(-9,260)	(-22,70)	(-1,445)	(-3,502)	(-7,726)	(-12,403)	
L2C -26>	(-5,2411)	(5,432)	(-18,1222)	(-16,784)	(-11,823)	(1,1076)	(-6,1022)	(16,488)	(53,238)	(-12,767)	(-23,1)	(-10,1148)	(-22,229)	(-3,2001)	(-17,282)	(22,196)	
L2C -25>	(-5,942)	(-8,919)	(-19,327)	(13,1)	(-3,1007)	(-9,409)	(2,386)	(3,157)	(-18,297)	(-6,1304)	(16,127)	(57,132)	(-11,543)	(47,182)	(-1,1372)	(46,246)	
L2C -24>	(-17,259)	(-8,1369)	(7,1)	(-20,385)	(-10,981)	(39,314)	(62,48)	(-18,635)	(-15,609)	(-4,831)	(-12,517)	(-16,467)	(-3,1495)	(42,321)	(-11,412)	(30,125)	
L2C -23>	(-2,1642)	(-10,1053)	(-3,2714)	(-19,565)	(-8,1)	(-5,1861)	(44,531)	(-15,559)	(7,403)	(33,286)	(-4,927)	(-13,1215)	(-6,1393)	(55,282)	(-26,458)	(23,566)	
L2C -22>	(-14,331)	(-6,680)	(-9,614)	(16,173)	(45,134)	(34,129)	(-10,495)	(-5,1060)	(43,1)	(-13,711)	(-4,1263)	(32,144)	(-7,714)	(-8,653)	(-24,179)	(36,145)	
L2C -21>	(-11,1463)	(-13,2462)	(-23,788)	(-8,3406)	(-5,3525)	(-3,3524)	(-14,536)	(-18,1419)	(-6,1467)	(2,655)	(-31,287)	(-10,1807)	(-12,979)	(-29,360)	(-4,1603)	(-7,1)	
L2C -20>	(-8,1951)	(-11,1392)	(-21,599)	(-1,2376)	(17,1)	(10,312)	(41,314)	(-12,234)	(-31,165)	(-5,1990)	(-4,1074)	(-16,900)	(59,236)	(-7,340)	(52,602)	(-9,758)	
L2C -19>	(-7,2532)	(-5,2325)	(3,620)	(-12,974)	(-18,736)	(-10,1566)	(1,2)	(47,358)	(-2,2469)	(-4,1414)	(8,502)	(-8,2303)	(9,259)	(-26,358)	(49,235)	(-13,1301)	
L2C -18>	(34,516)	(13,1)	(-5,6029)	(-1,3865)	(-2,4523)	(5,906)	(-18,1274)	(-15,1646)	(-13,2304)	(-21,1317)	(-8,4688)	(-4,1957)	(44,652)	(-6,3070)	(-26,887)	(39,702)	
L2C -17>	(-5,1588)	(-4,1949)	(-7,1019)	(36,1)	(-14,531)	(-9,1866)	(3,228)	(1,1397)	(-3,2437)	(57,279)	(-32,73)	(49,349)	(-1,2927)	(-31,144)	(-8,1478)	(-2,1264)	
L2C -16>	(-12,2071)	(-7,3554)	(-10,3730)	(-18,1937)	(-6,2344)	(-24,661)	(-13,3226)	(-5,6940)	(-8,3728)	(-2,6734)	(54,470)	(-28,436)	(-3,6122)	(-15,1535)	(-16,1352)	(1,1)	
L2C -15>	(-10,2564)	(-8,5228)	(-2,4085)	(-6,4623)	(-4,2107)	(-11,3192)	(19,1)	(28,522)	(-9,1676)	(-42,140)	(-3,6822)	(-1,4651)	(50,321)	(-18,1473)	(33,750)	(-14,2039)	
L2C -14>	(-13,1874)	(-12,1656)	(-15,1776)	(47,380)	(42,348)	(5,1)	(-4,2947)	(-7,3015)	(-10,2360)	(-8,2249)	(-2,5000)	(-25,421)	(-30,168)	(-5,5223)	(0,379)	(18,251)	
L2C -13>	(-16,3021)	(-7,6904)	(-5,13048)	(-23,1292)	(-14,1759)	(-12,2754)	(-10,6829)	(-19,1310)	(-6,5790)	(-8,9339)	(-11,4499)	(-3,12462)	(-20,1327)	(18,1)	(-2,12116)	(-15,2819)	
L2C -12>	(-5,5590)	(-8,4974)	(-21,1118)	(-19,1)	(4,762)	(-13,2855)	(-4,2862)	(23,295)	(57,447)	(-16,1594)	(-27,401)	(-14,2412)	(31,356)	(-6,5664)	(-9,2904)	(-3,9274)	
L2C -11>	(-5,10596)	(-2,15363)	(49,680)	(-8,8312)	(-4,5661)	(-18,2434)	(-9,2150)	(2,1268)	(39,958)	(37,598)	(-10,6174)	(-1,1)	(-33,352)	(-6,2284)	(-16,2667)	(18,403)	
L2C -10>	(-6,10484)	(-3,21751)	(-1,12482)	(-9,3111)	(-4,3558)	(40,1)	(1,2133)	(-19,1623)	(35,200)	(-29,744)	(-13,5421)	(-15,2547)	(-33,311)	(-7,5606)	(8,1048)	(-26,1119)	
L2C -9>	(-8,1)	(-18,1654)	(-7,5227)	(-24,303)	(-9,3610)	(-1,6815)	(1,3412)	(-4,11686)	(-5,7774)	(-11,1635)	(-30,345)	(-15,1288)	(-23,646)	(-12,2419)	(14,276)	(-36,134)	
L2C -8>	(-25,879)	(-5,32393)	(-19,1972)	(-8,16027)	(-3,28798)	(-13,9220)	(-16,4500)	(-18,4799)	(-27,547)	(-11,6418)	(-12,5542)	(-6,10333)	(-17,1)	(-2,32481)	(37,852)	(-10,12317)	
L2C -7>	(-8,14787)	(-3,32426)	(-6,17814)	(-2,11794)	(9,1)	(-19,2107)	(-5,20641)	(-21,2070)	(-1,33461)	(-9,4811)	(-11,6871)	(-14,3030)	(-18,2226)	(-23,1082)	(26,639)	(47,737)	
L2C -6>	(-8,10884)	(-10,9755)	(-3,19372)	(-18,2858)	(-9,3045)	(-7,16532)	(-33,539)	(-11,2419)	(-26,1169)	(-12,5756)	(-15,4463)	(-5,26246)	(-2,38410)	(-13,6755)	(-42,1)	(6,732)	
L2C -5>	(-8,28266)	(-13,11980)	(-6,23819)	(-10,14066)	(-26,2279)	(-7,18012)	(-11,10991)	(-3,84716)	(-9,6741)	(-5,50230)	(-1,53879)	(-2,74477)	(-12,5128)	(-15,6140)	(-20,1)	(44,2037)	
L2C -4>	(-22,1114)	(-3,43597)	(1,5619)	(-8,13314)	(-6,16909)	(-13,5983)	(-18,1890)	(-7,9256)	(-1,57880)	(3,1)	(-24,663)	(-16,2055)	(46,737)	(20,424)	(-11,5218)	(-9,10499)	
L2C -3>	(-2,141160)	(-26,2293)	(-10,23024)	(-25,1439)	(-13,14355)	(46,848)	(-3,77199)	(-8,32438)	(-5,68642)	(-15,7955)	(-7,35486)	(-21,3710)	(40,761)	(-16,5786)	(-1,4)	(-11,10383)	
L2C -2>	(-16,6394)	(-13,9935)	(-11,14112)	(-5,60908)	(-8,28812)	(-1,197742)	(-3,138538)	(-10,12071)	(-9,8353)	(-6,36371)	(1,1)	(3,1507)	(-31,711)	(41,1358)	(-18,4286)	(-2,120799)	
L2C -1>	(-5,63138)	(-15,5809)	(-4,62865)	(-7,31357)	(2,27570)	(-13,7993)	(-8,17462)	(-3,66581)	(-12,9276)	(-2,158509)	(-20,2207)	(1,12106)	(-26,1603)	(-17,2802)	(-1,8)	(-18,3263)	
L2C 0>	(-2,1750)	(0,14559)	(4,1)	(2,1746)	(-36,341)	(-25,478)	(-7,743)	(32,257)	(-23,346)	(10,365)	(1,5558)	(42,391)	(-1,1805)	(-6,706)	(34,367)	(-41,160)	
L2C 1>	(2,22383)	(-27,969)	(1,104960)	(-6,5325)	(-62,5782)	(-1,12765)	(-20,948)	(-21,1643)	(-22,940)	(3,1)	(-5,8142)	(-7,2122)	(-31,808)	(-29,1088)	(21,610)	(-13,3086)	
L2C 2>	(2,4224)	(1,24669)	(-20,907)	(34,1)	(-16,1199)	(-1,27728)	(-15,1760)	(-13,2561)	(40,220)	(-26,719)	(57,470)	(-36,374)	(-31,429)	(-8,4604)	(-41,239)	(-24,458)	
L2C 3>	(-14,732)	(49,274)	(-8,2908)	(-13,1709)	(-5,4540)	(-11,1762)	(1,1)	(-6,2947)	(-15,829)	(33,240)	(42,189)	(-29,429)	(-20,343)	(54,256)	(23,329)	(-19,589)	
L2C 4>	(-12,683)	(-7,1379)	(-26,280)	(-13,768)	(2,272)	(-8,1086)	(-6,613)	(52,162)	(3,4640)	(-10,805)	(1,795)	(-5,1948)	(-4,922)	(26,1)	(48,186)	(40,106)	
L2C 5>	(-20,589)	(-34,325)	(16,362)	(4,175)	(40,165)	(-10,1626)	(50,197)	(-8,2201)	(-7,1596)	(7,193)	(34,1)	(-19,431)	(49,218)	(-17,360)	(3,443)	(2,410)	
L2C 6>	(-1,1)	(-8,1045)	(-11,825)	(-3,875)	(8,200)	(52,124)	(-19,381)	(-10,478)	(-4,290)	(-32,161)	(-52,57)	(-37,164)	(-23,210)	(4,144)	(-13,773)	(5,234)	
L2C 7>	(-5,758)	(14,146)	(-2,827)	(-17,339)	(-26,275)	(-13,759)	(-31,194)	(-7,866)	(-15,673)	(-29,141)	(11,1)	(39,179)	(-39,161)	(-4,367)	(34,182)	(-21,330)	
L2C 8>	(-11,821)	(-3,1110)	(-22,201)	(-4,507)	(-5,1121)	(-16,666)	(3,1)	(-14,369)	(13,311)	(-21,616)	(22,91)	(-36,274)	(-41,107)	(-12,427)	(-8,1792)	(-39,206)	
L2C 9>	(-12,198)	(31,108)	(-13,408)	(-26,212)	(23,136)	(-5,514)	(8,1)	(7,141)	(-36,76)	(-45,66)	(-27,192)	(-8,317)	(46,48)	(-47,49)	(-30,138)	(-7,245)	
L2C 10>	(-13,888)	(-26,352)	(-15,627)	(28,239)	(27,139)	(-60,1)	(-23,407)	(-12,387)	(-9,209)	(1,587)	(-8,758)	(38,84)	(-21,447)	(-27,111)	(-49,78)	(-11,590)	
L2C 11>	(47,111)	(-27,1)	(-3,842)	(-16,588)	(24,165)	(-13,580)	(-39,171)	(-8,730)	(-5,719)	(-10,365)	(41,153)	(-18,393)	(33,143)	(36,172)	(-37,175)	(-29,376)	
L2C 12>	(16,171)	(-23,309)	(-12,488)	(-17,243)	(-1,1)	(-16,223)	(11,191)	(-20,238)	(-9,165)	(35,60)	(-34,94)	(-15,350)	(31,151)	(13,128)	(-6,144)	(-2,625)	
L2C 13>	(-3,1104)	(-5,1083)	(23,198)	(-15,737)	(-25,233)	(-1,1000)	(-11,656)	(-4,436)	(-26,397)	(29,402)	(-52,120)	(39,297)	(10,279)	(-34,1)	(-22,282)	(-8,908)	
L2C 14>	(-4,304)	(-37,112)	(-6,312)	(26,130)	(-5,389)	(-17,212)	(-29,179)	(45,39)	(4,155)	(2,246)	(23,103)	(5,1)	(30,95)	(33,94)	(-16,288)	(-11,278)	
L2C 15>	(-8,709)	(-3,606)	(-2,925)	(-5,689)	(-25,200)	(5,260)	(11,168)	(-47,1)	(-34,265)	(-7,468)	(-11,307)	(-33,181)	(-29,241)	(-26,331)	(-50,51)	(-13,567)	
L2C 16>	(-7,309)	(-8,1067)	(17,1)	(41,135)	(-21,690)	(-2,596)	(-13,610)	(-24,361)	(-32,177)	(-9,406)	(38,65)	(-14,285)	(-11,479)	(21,199)	(-26,297)	(2,405)	
L2C 17>	(42,141)	(-21,181)	(-12,243)	(-10,256)	(-26,211)	(-4,447)	(11,230)	(-2,459)	(18,152)	(-17,380)	(-20,267)	(-16,243)	(-15,275)	(12,82)	(-45,1)	(28,54)	
L2C 18>	(-10,628)	(-8,795)	(-11,472)	(-29,289)	(-26,423)	(-2,865)	(-21,517)	(21,246)	(1,1)	(-36,237)	(-41,145)	(2,319)	(-5,1003)	(-1,689)	(-28,234)	(-17,212)	
L2C 19>	(-8,555)	(-17,168)	(-10,321)	(13,179)	(-29,199)	(-13,407)	(-22,153)	(-6,536)	(-42,107)	(15,1)	(7,158)	(-11,428)	(-60,27)	(-31,141)	(-36,102)	(-18,325)	
L2C 20>	(-15,326)	(-2,688)	(-10,362)	(-28,222)	(-5,602)	(-11,205)	(-13,524)	(-7,488)	(-18,400)	(-12,296)	(-20,959)	(18,1)	(21,184)	(-4,422)	(-47,74)	(-26,332)	
L2C 21>	(-18,471)	(-3,1085)	(-5,1051)	(-13,845)	(-21,1428)	(-6,647)	(-8,1088)	(38,1)	(37,157)	(-35,118)	(-11,720)	(5,398)	(-40,113)	(-10,564)	(-26,394)	(-29,412)	
L2C 22>	(10,1)	(-6,301)	(1,367)	(-11,378)	(-19,176)	(-10,190)	(-13,353)	(30,99)	(-18,241)	(-32,100)	(-34,110)	(-22,448)	(-40,72)	(-3,532)	(3,186)	(-27,160)	
L2C 23>	(-5,944)	(-7,654)	(24,138)	(-2,823)	(-21,487)	(-4,1)	(-8,696)	(-31,266)	(-9,246)	(-19,206)	(29,199)	(-37,127)	(25,61)	(-10,711)	(-44,239)	(39,123)	
L2C 24>	(-10,426)	(-3,831)	(-28,134)	(21,180)	(6,1)	(-8,701)	(-11,612)	(-50,63)	(-42,113)	(-5,683)	(16,208)	(-40,98)	(2,306)	(-35,158)	(-22,145)	(-7,205)	
L2C 25>	(-22,123)	(-21,243)	(-29,117)	(-1,1)	(-3,414)	(-15,350)	(-5,570)	(-23,217)	(22,94)	(-13,361)	(-25,694)	(-34,91)	(-14,86)	(14,136)	(-56,52)	(-18,330)	
L2C 26>	(-5,1272)	(-49,137)	(-15,463)	(-2,1145)	(-7,671)	(26,250)	(-28,345)	(-21,519)	(-26,1145)	(13,1)	(-14,321)	(21,231)	(-30,259)	(5,266)	(29,190)	(23,211)	
L2C 27>	(-16,426)	(-29,180)	(-14,280)	(-13,345)	(2,275)	(-2,245)	(-6,439)	(-9,449)	(1,1)	(-26,189)	(-11,601)	(-3,664)	(-5,464)	(-8,600)	(-48,68)	(26,113)	
L2C 28>	(-6,243)	(-21,444)	(-26,300)	(-5,934)	(-19,170)	(-12,447)	(-2,1064)	(-44,166)	(57,1)	(-8,678)	(-28,530)	(-35,72)	(11,223)	(-11,326)	(13,193)	(36,50)	
L2C 29>	(-2,1237)	(-13,695)	(31,126)	(-10,589)	(13,219)	(18,184)	(-5,1001)	(-4,317)	(10,178)	(6,141)	(-28,187)	(1,1)	(-8,964)	(-42,272)	(-1,777)	(-37,324)	
L2C 30>	(-13,389)	(-11,211)	(9,145)	(-43,72)	(-2,537)	(-8,484)	(-3,363)	(-21,320)	(6,98)	(15,64)	(-34,145)	(-10,289)	(-40,1)	(-5,448)	(1,343)	(13,151)	
L2C 31>	(1,1)	(-8,1034)	(-1,775)	(-23,372)	(-7,642)	(-18,677)	(-10,911)	(-6,546)	(-5,1120)	(-15,517)	(-22,205)	(-27,156)	(-28,318)	(-37,115)	(5,297)	(-9,321)	
L2C 32>	(-2,611)	(-5,750)	(-24,327)	(-6,729)	(-15,305)	(26,106)	(-29,243)	(-7,166)	(35,1)	(-16,407)	(4,115)	(-14,275)	(12,96)	(-28,125)	(-11,532)	(-40,85)	
L2C 33>	(-18,600)	(-29,139)	(18,1)	(20,38)	(-39,202)	(-2,1171)	(-26,226)	(-10,479)	(-5,786)	(-3,537)	(-34,185)	(-21,254)	(-8,459)	(-12,444)	(-13,478)	(-17,225)	
L2C 34>	(-18,696)	(-28,250)	(-37,225)	(-10,689)	(-49,1)	(36,66)	(-3,1137)	(-8,996)	(-5,1195)	(-24,305)	(-23,318)	(-6,676)	(-42,207)	(-12,320)	(-16,534)	(10,192)	
L2C 35>	(-36,90)	(-9,750)	(-13,382)	(-17,1)	(-3,657)	(-21,190)	(-1,476)	(-8,483)	(26,50)	(4,175)	(-2,352)	(33,22)	(-5,535)	(-19,194)	(9,98)	(-18,219)	
L2C 36>	(-29,184)	(13,191)	(39,68)	(-8,914)	(-56,1)	(-13,707)	(-21,522)	(-10,759)	(-11,737)	(-36,736)	(-2,962)	(-15,484)	(-34,189)	(14,79)	(-3,842)	(-7,753)	
L2C 37>	(-6,776)	(-21,415)	(-34,213)	(13,130)	(-14,308)	(-16,451)	(8,177)	(-5,953)	(-26,223)	(-3,1387)	(-18,355)	(7,127)	(-30,1)	(-19,266)	(-13,577)	(-1,1275)	
L2C 38>	(-12,342)	(-20,334)	(-33,132)	(-54,1)	(37,12)	(-2,1316)	(-23,172)	(-41,98)	(-6,188)	(-18,318)	(-5,722)	(3,139)	(-10,464)	(-9,185)	(6,123)	(-15,427)	
L2C 39>	(-7,1012)	(-23,339)	(-19,294)	(3,319)	(-8,1391)	(-13,1058)	(-15,705)	(-36,244)	(-20,1)	(-50,84)	(-10,827)	(-3,1434)	(-5,1669)	(-11,779)	(-32,183)	(-27,136)	
L2C 40>	(-5,719)	(-11,529)	(-14,416)	(-6,617)	(2,257)	(-7,154)	(-21,333)	(-29,1)	(7,150)	(-17,118)	(-8,763)	(-16,347)	(-32,135)	(-55,36)	(-26,205)	(-31,92)	
L2C 41>	(-25,1)	(-5,1212)	(-13,655)	(-12,368)	(-18,483)	(-44,207)	(-41,517)	(-3,1017)	(-7,887)	(-31,270)	(2,133)	(-24,168)	(-10,848)	(8,160)	(-16,536)	(-20,354)	
L2C 42>	(-2,1427)	(-29,665)	(-7,569)	(3,201)	(-42,471)	(-49,95)	(-6,833)	(-18,615)	(-28,181)	(-17,1)	(-3,1871)	(-19,328)	(-32,164)	(-27,158)	(-9,321)	(34,57)	
L2C 43>	(-22,154)	(-13,506)	(-11,290)	(-10,350)	(-12,280)	(-25,1)	(-4,827)	(-8,419)	(-7,382)	(-5,638)	(8,81)	(-33,133)	(-18,153)	(-3,480)	(-26,244)	(-28,103)	
L2C 44>	(-6,959)	(-5,1780)	(-18,671)	(-7,957)	(-12,400)	(-3,1998)	(-16,594)	(-13,1467)	(12,67)	(-2,1907)	(8,267)	(-8,1200)	(-23,522)	(1,1)	(2,288)	(-28,307)	
L2C 45>	(-16,573)	(-8,898)	(-9,375)	(-14,442)	(-3,1639)	(-36,98)	(-10,389)	(-15,209)	(-13,703)	(-1,1)	(-11,524)	(-18,302)	(-24,327)	(-17,116)	(-2,480)	(-28,117)	
L2C 46>	(-8,768)	(0,1)	(-5,1021)	(-4,579)	(-14,117)	(4,90)	(8,145)	(-29,118)	(-12,434)	(-33,145)	(-36,163)	(-7,924)	(1,324)	(-15,461)	(-10,715)	(-41,130)	
L2C 47>	(-2,2043)	(-1,1269)	(-13,1087)	(-8,1711)	(-20,277)	(-6,1149)	(6,1)	(-23,342)	(-5,2211)	(-19,464)	(-22,202)	(-50,120)	(-11,761)	(-24,239)	(-10,879)	(-7,821)	
L2C 48>	(-5,873)	(4,1)	(-3,1005)	(-4,1031)	(-16,345)	(-6,833)	(-10,302)	(-1,1461)	(-13,601)	(-42,69)	(-15,222)	(-9,683)	(-24,148)	(-30,163)	(-37,106)	(-27,330)	
L2C 49>	(-5,2004)	(-8,1288)	(-3,1644)	(-26,461)	(-10,1406)	(-36,1)	(-1,844)	(-16,683)	(-25,158)	(-15,978)	(-44,169)	(1,294)	(-22,101)	(-13,902)	(-28,272)	(-24,198)	
L2C 50>	(2,335)	(-31,171)	(-12,102)	(-3,1960)	(-13,735)	(-57,1)	(-22,143)	(-6,959)	(-8,1336)	(-28,94)	(-17,136)	(-11,916)	(-21,462)	(-35,74)	(-18,464)	(-9,625)	
L2C 51>	(-3,1256)	(-12,534)	(-1,2)	(-13,474)	(-10,651)	(-15,331)	(-7,853)	(-26,189)	(-54,64)	(-23,203)	(-21,184)	(-41,68)	(-19,69)	(-31,110)	(-18,309)	(-2,1676)	
L2C 52>	(-11,807)	(-13,1556)	(-7,1475)	(-16,713)	(-39,263)	(-5,3093)	(-4,1338)	(-10,1111)	(-22,211)	(-14,524)	(31,1)	(-12,595)	(-27,195)	(-3,3084)	(-31,325)	(-18,648)	
L2C 53>	(-1,1722)	(-18,267)	(-16,329)	(-6,1014)	(-11,583)	(-3,1497)	(-39,103)	(-29,164)	(-21,256)	(-26,210)	(-4,543)	(-19,257)	(-5,1337)	(4,1)	(-52,77)	(-35,48)	
L2C 54>	(-6,583)	(-32,1)	(-3,1557)	(-44,149)	(-10,954)	(-18,468)	(-7,991)	(-8,1395)	(-34,221)	(-13,977)	(-12,457)	(-23,217)	(-31,342)	(-15,855)	(-33,118)	(-29,266)	
L2C 55>	(-3,4042)	(2,357)	(-23,248)	(-11,947)	(-16,579)	(-6,1723)	(-18,492)	(-9,594)	(-2,1953)	(-5,2031)	(-22,137)	(-1,2115)	(-34,166)	(-8,1737)	(10,1)	(-25,64)	
L2C 56>	(-17,214)	(-15,309)	(-26,179)	(-1,968)	(50,11)	(-13,428)	(-7,648)	(-9,434)	(-36,69)	(-18,215)	(-12,352)	(15,1)	(-5,1018)	(1,222)	(-23,105)	(-4,1217)	
L2C 57>	(-12,561)	(-7,1208)	(-18,570)	(-6,902)	(-8,1665)	(-5,3291)	(-15,1090)	(-9,584)	(-1,1)	(-10,1209)	(-28,274)	(-57,233)	(-38,64)	(-2,3859)	(-3,3471)	(-16,463)	
L2C 58>	(-21,208)	(-8,1127)	(-3,2673)	(-13,654)	(-44,1)	(-37,119)	(-22,81)	(-26,289)	(0,129)	(-5,1615)	(-6,1592)	(-10,307)	(-11,918)	(-27,160)	(-1,2562)	(-14,382)	
L2C 59>	(-12,692)	(-8,996)	(-10,989)	(-2,3137)	(-5,1812)	(-33,100)	(-6,169)	(-3,1549)	(-15,544)	(-11,280)	(-23,159)	(-13,660)	(-1,2)	(-16,183)	(-7,1144)	(-4,1694)	
L2C 60>	(-29,104)	(-16,470)	(-33,60)	(-14,231)	(-15,441)	(-8,1510)	(-13,1174)	(-18,496)	(-10,630)	(-7,915)	(1,180)	(-3,3921)	(-34,111)	(-21,345)	(-2,3727)	(2,1)	
L2C 61>	(-18,135)	(-4,1159)	(-2,1698)	(-6,905)	(-14,357)	(-5,1348)	(-1,1)	(-17,84)	(-12,102)	(-10,215)	(-13,379)	(-26,128)	(-15,273)	(-44,30)	(-8,753)	(-33,25)	
L2C 62>	(-26,165)	(-5,2314)	(-21,100)	(-15,392)	(-10,699)	(-13,717)	(-4,724)	(48,1)	(-6,538)	(-39,46)	(-7,761)	(-8,1005)	(-16,395)	(-2,4018)	(-30,69)	(-12,227)	
L2C 63>	(-37,1)	(-34,41)	(-5,608)	(-13,453)	(-10,387)	(-2,163)	(-8,451)	(-19,129)	(-3,1168)	(-26,75)	(-29,43)	(-1,1185)	(-6,406)	(-16,153)	(-21,113)	(-11,498)	
Channel_0_RQ_row_buffer_hit 2150627
Channel_0_RQ_row_buffer_miss 27022590
Channel_0_WQ_row_buffer_hit 2527356
Channel_0_WQ_row_buffer_miss 21890643
Channel_0_WQ_full 403231
Channel_0_dbus_congested 32507317

avg_congested_cycle 11
