*************************************************
   ChampSim Multicore Out-of-Order Simulator
   Last compiled: Jan 16 2021 19:18:51
*************************************************

trace_0 traces/627.cam4_s-573B.champsimtrace.xz
CPU 0 L2C Markov prefetcher
Initialize SHIP state
warmup_instructions 100000000
simulation_instructions 500000000
champsim_seed 225

num_cpus 1
cpu_freq 4000
dram_io_freq 2400
page_size 4096
block_size 64
max_read_per_cycle 8
max_fill_per_cycle 1
dram_channels 1
dram_ranks 1
dram_banks 8
dram_rows 65536
dram_columns 128
dram_row_size 8
dram_size 4096
dram_pages 1048576

fetch_width 6
decode_width 6
exec_width 4
lq_width 2
sq_width 2
retire_width 4
scheduler_size 128
branch_mispredict_penalty 20
rob_size 256
lq_size 72
sq_size 56
num_instr_destinations_sparc 4
num_instr_destinations 2
num_instr_sources 4

itlb_set 16
itlb_way 8
itlb_rq_size 16
itlb_wq_size 16
itlb_pq_size 0
itlb_mshr_size 8
itlb_latency 1

dtlb_set 16
dtlb_way 4
dtlb_rq_size 16
dtlb_wq_size 16
dtlb_pq_size 0
dtlb_mshr_size 8
dtlb_latency 1

stlb_set 128
stlb_way 12
stlb_rq_size 32
stlb_wq_size 32
stlb_pq_size 0
stlb_mshr_size 16
stlb_latency 8

l1i_size 32
l1i_set 64
l1i_way 8
l1i_rq_size 64
l1i_wq_size 64
l1i_pq_size 8
l1i_mshr_size 8
l1i_latency 1

l1d_size 32
l1d_set 64
l1d_way 8
l1d_rq_size 64
l1d_wq_size 64
l1d_pq_size 8
l1d_mshr_size 16
l1d_latency 4

l2c_size 512
l2c_set 1024
l2c_way 8
l2c_rq_size 32
l2c_wq_size 32
l2c_pq_size 16
l2c_mshr_size 32
l2c_latency 10

llc_size 2048
llc_set 2048
llc_way 16
llc_rq_size 32
llc_wq_size 32
llc_pq_size 32
llc_mshr_size 64
llc_latency 20

dram_channel_width 8
dram_wq_size 64
dram_rq_size 64
tRP 15
tRCD 15
tCAS 12.5
dram_dbus_turn_around_time 30
dram_write_high_wm 56
dram_write_low_wm 48
min_dram_writes_per_switch 16
dram_mtps 2400
dram_dbus_return_time 13


Heartbeat CPU  0 instructions:    1000003 cycles:     291872 heartbeat IPC: 3.42617 cumulative IPC: 3.42617 (Simulation time: 0 hr 0 min 1 sec) 
Heartbeat CPU  0 instructions:    2000002 cycles:     661857 heartbeat IPC: 2.70281 cumulative IPC: 3.02180 (Simulation time: 0 hr 0 min 2 sec) 
Heartbeat CPU  0 instructions:    3000001 cycles:    1154096 heartbeat IPC: 2.03153 cumulative IPC: 2.59944 (Simulation time: 0 hr 0 min 3 sec) 
Heartbeat CPU  0 instructions:    4000000 cycles:    1489283 heartbeat IPC: 2.98341 cumulative IPC: 2.68586 (Simulation time: 0 hr 0 min 4 sec) 
Heartbeat CPU  0 instructions:    5000003 cycles:    1868699 heartbeat IPC: 2.63564 cumulative IPC: 2.67566 (Simulation time: 0 hr 0 min 6 sec) 
Heartbeat CPU  0 instructions:    6000000 cycles:    2312358 heartbeat IPC: 2.25398 cumulative IPC: 2.59475 (Simulation time: 0 hr 0 min 7 sec) 
Heartbeat CPU  0 instructions:    7000000 cycles:    2754458 heartbeat IPC: 2.26193 cumulative IPC: 2.54133 (Simulation time: 0 hr 0 min 9 sec) 
Heartbeat CPU  0 instructions:    8000000 cycles:    3213937 heartbeat IPC: 2.17638 cumulative IPC: 2.48916 (Simulation time: 0 hr 0 min 11 sec) 
Heartbeat CPU  0 instructions:    9000003 cycles:    3662315 heartbeat IPC: 2.23027 cumulative IPC: 2.45746 (Simulation time: 0 hr 0 min 12 sec) 
Heartbeat CPU  0 instructions:   10000003 cycles:    4123583 heartbeat IPC: 2.16794 cumulative IPC: 2.42508 (Simulation time: 0 hr 0 min 14 sec) 
Heartbeat CPU  0 instructions:   11000002 cycles:    4537745 heartbeat IPC: 2.41451 cumulative IPC: 2.42411 (Simulation time: 0 hr 0 min 15 sec) 
Heartbeat CPU  0 instructions:   12000000 cycles:    4945114 heartbeat IPC: 2.45477 cumulative IPC: 2.42664 (Simulation time: 0 hr 0 min 17 sec) 
Heartbeat CPU  0 instructions:   13000000 cycles:    5333893 heartbeat IPC: 2.57216 cumulative IPC: 2.43724 (Simulation time: 0 hr 0 min 19 sec) 
Heartbeat CPU  0 instructions:   14000001 cycles:    5729683 heartbeat IPC: 2.52659 cumulative IPC: 2.44342 (Simulation time: 0 hr 0 min 20 sec) 
Heartbeat CPU  0 instructions:   15000000 cycles:    6123649 heartbeat IPC: 2.53829 cumulative IPC: 2.44952 (Simulation time: 0 hr 0 min 22 sec) 
Heartbeat CPU  0 instructions:   16000000 cycles:    6512844 heartbeat IPC: 2.56941 cumulative IPC: 2.45668 (Simulation time: 0 hr 0 min 23 sec) 
Heartbeat CPU  0 instructions:   17000001 cycles:    6922728 heartbeat IPC: 2.43972 cumulative IPC: 2.45568 (Simulation time: 0 hr 0 min 25 sec) 
Heartbeat CPU  0 instructions:   18000003 cycles:    7357424 heartbeat IPC: 2.30046 cumulative IPC: 2.44651 (Simulation time: 0 hr 0 min 27 sec) 
Heartbeat CPU  0 instructions:   19000003 cycles:    7764755 heartbeat IPC: 2.45501 cumulative IPC: 2.44695 (Simulation time: 0 hr 0 min 28 sec) 
Heartbeat CPU  0 instructions:   20000000 cycles:    8159287 heartbeat IPC: 2.53464 cumulative IPC: 2.45119 (Simulation time: 0 hr 0 min 30 sec) 
Heartbeat CPU  0 instructions:   21000002 cycles:    8559693 heartbeat IPC: 2.49747 cumulative IPC: 2.45336 (Simulation time: 0 hr 0 min 31 sec) 
Heartbeat CPU  0 instructions:   22000000 cycles:    8963161 heartbeat IPC: 2.47851 cumulative IPC: 2.45449 (Simulation time: 0 hr 0 min 33 sec) 
Heartbeat CPU  0 instructions:   23000003 cycles:    9385495 heartbeat IPC: 2.36780 cumulative IPC: 2.45059 (Simulation time: 0 hr 0 min 35 sec) 
Heartbeat CPU  0 instructions:   24000000 cycles:    9783111 heartbeat IPC: 2.51498 cumulative IPC: 2.45321 (Simulation time: 0 hr 0 min 36 sec) 
Heartbeat CPU  0 instructions:   25000000 cycles:   10169745 heartbeat IPC: 2.58643 cumulative IPC: 2.45827 (Simulation time: 0 hr 0 min 38 sec) 
Heartbeat CPU  0 instructions:   26000002 cycles:   10554988 heartbeat IPC: 2.59577 cumulative IPC: 2.46329 (Simulation time: 0 hr 0 min 39 sec) 
Heartbeat CPU  0 instructions:   27000002 cycles:   10946816 heartbeat IPC: 2.55214 cumulative IPC: 2.46647 (Simulation time: 0 hr 0 min 41 sec) 
Heartbeat CPU  0 instructions:   28000000 cycles:   11372997 heartbeat IPC: 2.34642 cumulative IPC: 2.46197 (Simulation time: 0 hr 0 min 43 sec) 
Heartbeat CPU  0 instructions:   29000000 cycles:   11760983 heartbeat IPC: 2.57741 cumulative IPC: 2.46578 (Simulation time: 0 hr 0 min 44 sec) 
Heartbeat CPU  0 instructions:   30000002 cycles:   12161323 heartbeat IPC: 2.49788 cumulative IPC: 2.46684 (Simulation time: 0 hr 0 min 46 sec) 
Heartbeat CPU  0 instructions:   31000001 cycles:   12553271 heartbeat IPC: 2.55136 cumulative IPC: 2.46948 (Simulation time: 0 hr 0 min 47 sec) 
Heartbeat CPU  0 instructions:   32000000 cycles:   12938751 heartbeat IPC: 2.59417 cumulative IPC: 2.47319 (Simulation time: 0 hr 0 min 49 sec) 
Heartbeat CPU  0 instructions:   33000003 cycles:   13330110 heartbeat IPC: 2.55521 cumulative IPC: 2.47560 (Simulation time: 0 hr 0 min 50 sec) 
Heartbeat CPU  0 instructions:   34000000 cycles:   13720547 heartbeat IPC: 2.56122 cumulative IPC: 2.47804 (Simulation time: 0 hr 0 min 52 sec) 
Heartbeat CPU  0 instructions:   35000000 cycles:   14108365 heartbeat IPC: 2.57853 cumulative IPC: 2.48080 (Simulation time: 0 hr 0 min 54 sec) 
Heartbeat CPU  0 instructions:   36000000 cycles:   14493335 heartbeat IPC: 2.59760 cumulative IPC: 2.48390 (Simulation time: 0 hr 0 min 55 sec) 
Heartbeat CPU  0 instructions:   37000000 cycles:   14877466 heartbeat IPC: 2.60328 cumulative IPC: 2.48698 (Simulation time: 0 hr 0 min 57 sec) 
Heartbeat CPU  0 instructions:   38000002 cycles:   15258024 heartbeat IPC: 2.62773 cumulative IPC: 2.49049 (Simulation time: 0 hr 0 min 58 sec) 
Heartbeat CPU  0 instructions:   39000002 cycles:   15641848 heartbeat IPC: 2.60536 cumulative IPC: 2.49331 (Simulation time: 0 hr 1 min 0 sec) 
Heartbeat CPU  0 instructions:   40000000 cycles:   16131465 heartbeat IPC: 2.04241 cumulative IPC: 2.47963 (Simulation time: 0 hr 1 min 1 sec) 
Heartbeat CPU  0 instructions:   41000001 cycles:   16567505 heartbeat IPC: 2.29337 cumulative IPC: 2.47472 (Simulation time: 0 hr 1 min 3 sec) 
Heartbeat CPU  0 instructions:   42000000 cycles:   16995774 heartbeat IPC: 2.33498 cumulative IPC: 2.47120 (Simulation time: 0 hr 1 min 4 sec) 
Heartbeat CPU  0 instructions:   43000001 cycles:   17465361 heartbeat IPC: 2.12953 cumulative IPC: 2.46202 (Simulation time: 0 hr 1 min 6 sec) 
Heartbeat CPU  0 instructions:   44000000 cycles:   17970761 heartbeat IPC: 1.97863 cumulative IPC: 2.44842 (Simulation time: 0 hr 1 min 7 sec) 
Heartbeat CPU  0 instructions:   45000001 cycles:   18473479 heartbeat IPC: 1.98919 cumulative IPC: 2.43592 (Simulation time: 0 hr 1 min 8 sec) 
Heartbeat CPU  0 instructions:   46000000 cycles:   18975351 heartbeat IPC: 1.99254 cumulative IPC: 2.42420 (Simulation time: 0 hr 1 min 10 sec) 
Heartbeat CPU  0 instructions:   47000000 cycles:   19477273 heartbeat IPC: 1.99234 cumulative IPC: 2.41307 (Simulation time: 0 hr 1 min 11 sec) 
Heartbeat CPU  0 instructions:   48000000 cycles:   19979581 heartbeat IPC: 1.99081 cumulative IPC: 2.40245 (Simulation time: 0 hr 1 min 12 sec) 
Heartbeat CPU  0 instructions:   49000000 cycles:   20479255 heartbeat IPC: 2.00130 cumulative IPC: 2.39267 (Simulation time: 0 hr 1 min 13 sec) 
Heartbeat CPU  0 instructions:   50000001 cycles:   20979865 heartbeat IPC: 1.99756 cumulative IPC: 2.38324 (Simulation time: 0 hr 1 min 15 sec) 
Heartbeat CPU  0 instructions:   51000002 cycles:   21477096 heartbeat IPC: 2.01114 cumulative IPC: 2.37462 (Simulation time: 0 hr 1 min 16 sec) 
Heartbeat CPU  0 instructions:   52000000 cycles:   21974175 heartbeat IPC: 2.01175 cumulative IPC: 2.36641 (Simulation time: 0 hr 1 min 17 sec) 
Heartbeat CPU  0 instructions:   53000001 cycles:   22471962 heartbeat IPC: 2.00889 cumulative IPC: 2.35849 (Simulation time: 0 hr 1 min 19 sec) 
Heartbeat CPU  0 instructions:   54000001 cycles:   22967965 heartbeat IPC: 2.01612 cumulative IPC: 2.35110 (Simulation time: 0 hr 1 min 20 sec) 
Heartbeat CPU  0 instructions:   55000003 cycles:   23464109 heartbeat IPC: 2.01555 cumulative IPC: 2.34401 (Simulation time: 0 hr 1 min 21 sec) 
Heartbeat CPU  0 instructions:   56000000 cycles:   23961041 heartbeat IPC: 2.01234 cumulative IPC: 2.33713 (Simulation time: 0 hr 1 min 23 sec) 
Heartbeat CPU  0 instructions:   57000003 cycles:   24458807 heartbeat IPC: 2.00898 cumulative IPC: 2.33045 (Simulation time: 0 hr 1 min 24 sec) 
Heartbeat CPU  0 instructions:   58000001 cycles:   24954078 heartbeat IPC: 2.01909 cumulative IPC: 2.32427 (Simulation time: 0 hr 1 min 25 sec) 
Heartbeat CPU  0 instructions:   59000003 cycles:   25454149 heartbeat IPC: 1.99972 cumulative IPC: 2.31789 (Simulation time: 0 hr 1 min 27 sec) 
Heartbeat CPU  0 instructions:   60000000 cycles:   25955431 heartbeat IPC: 1.99488 cumulative IPC: 2.31166 (Simulation time: 0 hr 1 min 28 sec) 
Heartbeat CPU  0 instructions:   61000003 cycles:   26453495 heartbeat IPC: 2.00778 cumulative IPC: 2.30593 (Simulation time: 0 hr 1 min 29 sec) 
Heartbeat CPU  0 instructions:   62000001 cycles:   26948160 heartbeat IPC: 2.02157 cumulative IPC: 2.30071 (Simulation time: 0 hr 1 min 31 sec) 
Heartbeat CPU  0 instructions:   63000002 cycles:   27445169 heartbeat IPC: 2.01204 cumulative IPC: 2.29549 (Simulation time: 0 hr 1 min 32 sec) 
Heartbeat CPU  0 instructions:   64000000 cycles:   27939493 heartbeat IPC: 2.02296 cumulative IPC: 2.29066 (Simulation time: 0 hr 1 min 33 sec) 
Heartbeat CPU  0 instructions:   65000000 cycles:   28439257 heartbeat IPC: 2.00094 cumulative IPC: 2.28557 (Simulation time: 0 hr 1 min 35 sec) 
Heartbeat CPU  0 instructions:   66000003 cycles:   28967764 heartbeat IPC: 1.89213 cumulative IPC: 2.27839 (Simulation time: 0 hr 1 min 36 sec) 
Heartbeat CPU  0 instructions:   67000003 cycles:   29387820 heartbeat IPC: 2.38064 cumulative IPC: 2.27986 (Simulation time: 0 hr 1 min 38 sec) 
Heartbeat CPU  0 instructions:   68000000 cycles:   29786377 heartbeat IPC: 2.50904 cumulative IPC: 2.28292 (Simulation time: 0 hr 1 min 39 sec) 
Heartbeat CPU  0 instructions:   69000000 cycles:   30184045 heartbeat IPC: 2.51466 cumulative IPC: 2.28598 (Simulation time: 0 hr 1 min 41 sec) 
Heartbeat CPU  0 instructions:   70000000 cycles:   30574598 heartbeat IPC: 2.56047 cumulative IPC: 2.28948 (Simulation time: 0 hr 1 min 42 sec) 
Heartbeat CPU  0 instructions:   71000003 cycles:   30962476 heartbeat IPC: 2.57814 cumulative IPC: 2.29310 (Simulation time: 0 hr 1 min 44 sec) 
Heartbeat CPU  0 instructions:   72000000 cycles:   31351894 heartbeat IPC: 2.56793 cumulative IPC: 2.29651 (Simulation time: 0 hr 1 min 45 sec) 
Heartbeat CPU  0 instructions:   73000003 cycles:   31741736 heartbeat IPC: 2.56515 cumulative IPC: 2.29981 (Simulation time: 0 hr 1 min 47 sec) 
Heartbeat CPU  0 instructions:   74000000 cycles:   32166086 heartbeat IPC: 2.35654 cumulative IPC: 2.30056 (Simulation time: 0 hr 1 min 48 sec) 
Heartbeat CPU  0 instructions:   75000003 cycles:   32780837 heartbeat IPC: 1.62668 cumulative IPC: 2.28792 (Simulation time: 0 hr 1 min 49 sec) 
Heartbeat CPU  0 instructions:   76000000 cycles:   33305459 heartbeat IPC: 1.90613 cumulative IPC: 2.28191 (Simulation time: 0 hr 1 min 51 sec) 
Heartbeat CPU  0 instructions:   77000001 cycles:   33747272 heartbeat IPC: 2.26340 cumulative IPC: 2.28167 (Simulation time: 0 hr 1 min 52 sec) 
Heartbeat CPU  0 instructions:   78000002 cycles:   34151336 heartbeat IPC: 2.47486 cumulative IPC: 2.28395 (Simulation time: 0 hr 1 min 54 sec) 
Heartbeat CPU  0 instructions:   79000001 cycles:   34706934 heartbeat IPC: 1.79986 cumulative IPC: 2.27620 (Simulation time: 0 hr 1 min 55 sec) 
Heartbeat CPU  0 instructions:   80000000 cycles:   35204077 heartbeat IPC: 2.01149 cumulative IPC: 2.27246 (Simulation time: 0 hr 1 min 56 sec) 
Heartbeat CPU  0 instructions:   81000002 cycles:   35729297 heartbeat IPC: 1.90397 cumulative IPC: 2.26705 (Simulation time: 0 hr 1 min 58 sec) 
Heartbeat CPU  0 instructions:   82000003 cycles:   36240772 heartbeat IPC: 1.95513 cumulative IPC: 2.26265 (Simulation time: 0 hr 1 min 59 sec) 
Heartbeat CPU  0 instructions:   83000000 cycles:   36720659 heartbeat IPC: 2.08382 cumulative IPC: 2.26031 (Simulation time: 0 hr 2 min 0 sec) 
Heartbeat CPU  0 instructions:   84000000 cycles:   37184529 heartbeat IPC: 2.15578 cumulative IPC: 2.25900 (Simulation time: 0 hr 2 min 1 sec) 
Heartbeat CPU  0 instructions:   85000000 cycles:   37649652 heartbeat IPC: 2.14997 cumulative IPC: 2.25766 (Simulation time: 0 hr 2 min 2 sec) 
Heartbeat CPU  0 instructions:   86000001 cycles:   38165451 heartbeat IPC: 1.93874 cumulative IPC: 2.25335 (Simulation time: 0 hr 2 min 4 sec) 
Heartbeat CPU  0 instructions:   87000001 cycles:   38612555 heartbeat IPC: 2.23662 cumulative IPC: 2.25315 (Simulation time: 0 hr 2 min 4 sec) 
Heartbeat CPU  0 instructions:   88000000 cycles:   39060909 heartbeat IPC: 2.23038 cumulative IPC: 2.25289 (Simulation time: 0 hr 2 min 5 sec) 
Heartbeat CPU  0 instructions:   89000000 cycles:   39511209 heartbeat IPC: 2.22074 cumulative IPC: 2.25253 (Simulation time: 0 hr 2 min 6 sec) 
Heartbeat CPU  0 instructions:   90000001 cycles:   39874661 heartbeat IPC: 2.75140 cumulative IPC: 2.25707 (Simulation time: 0 hr 2 min 8 sec) 
Heartbeat CPU  0 instructions:   91000001 cycles:   40362567 heartbeat IPC: 2.04958 cumulative IPC: 2.25456 (Simulation time: 0 hr 2 min 9 sec) 
Heartbeat CPU  0 instructions:   92000000 cycles:   40862807 heartbeat IPC: 1.99904 cumulative IPC: 2.25144 (Simulation time: 0 hr 2 min 10 sec) 
Heartbeat CPU  0 instructions:   93000000 cycles:   41403483 heartbeat IPC: 1.84954 cumulative IPC: 2.24619 (Simulation time: 0 hr 2 min 11 sec) 
Heartbeat CPU  0 instructions:   94000001 cycles:   42018571 heartbeat IPC: 1.62579 cumulative IPC: 2.23711 (Simulation time: 0 hr 2 min 13 sec) 
Heartbeat CPU  0 instructions:   95000003 cycles:   42637574 heartbeat IPC: 1.61550 cumulative IPC: 2.22808 (Simulation time: 0 hr 2 min 14 sec) 
Heartbeat CPU  0 instructions:   96000000 cycles:   43116554 heartbeat IPC: 2.08776 cumulative IPC: 2.22652 (Simulation time: 0 hr 2 min 16 sec) 
Heartbeat CPU  0 instructions:   97000003 cycles:   43444417 heartbeat IPC: 3.05006 cumulative IPC: 2.23274 (Simulation time: 0 hr 2 min 17 sec) 
Heartbeat CPU  0 instructions:   98000003 cycles:   43886238 heartbeat IPC: 2.26336 cumulative IPC: 2.23305 (Simulation time: 0 hr 2 min 18 sec) 
Heartbeat CPU  0 instructions:   99000002 cycles:   44355121 heartbeat IPC: 2.13273 cumulative IPC: 2.23199 (Simulation time: 0 hr 2 min 20 sec) 
Heartbeat CPU  0 instructions:  100000000 cycles:   44953541 heartbeat IPC: 1.67106 cumulative IPC: 2.22452 (Simulation time: 0 hr 2 min 22 sec) 

Warmup complete CPU  0 instructions:  100000004 cycles:   44953570 (Simulation time: 0 hr 2 min 22 sec) 

Heartbeat CPU  0 instructions:  101000000 cycles:   52708237 heartbeat IPC: 0.12895 cumulative IPC: 0.12895 (Simulation time: 0 hr 2 min 30 sec) 
Heartbeat CPU  0 instructions:  102000003 cycles:   60270017 heartbeat IPC: 0.13224 cumulative IPC: 0.13058 (Simulation time: 0 hr 2 min 37 sec) 
Heartbeat CPU  0 instructions:  103000003 cycles:   63696593 heartbeat IPC: 0.29184 cumulative IPC: 0.16006 (Simulation time: 0 hr 2 min 41 sec) 
Heartbeat CPU  0 instructions:  104000000 cycles:   66958061 heartbeat IPC: 0.30661 cumulative IPC: 0.18178 (Simulation time: 0 hr 2 min 45 sec) 
Heartbeat CPU  0 instructions:  105000000 cycles:   69147761 heartbeat IPC: 0.45668 cumulative IPC: 0.20666 (Simulation time: 0 hr 2 min 48 sec) 
Heartbeat CPU  0 instructions:  106000000 cycles:   70532579 heartbeat IPC: 0.72212 cumulative IPC: 0.23457 (Simulation time: 0 hr 2 min 50 sec) 
Heartbeat CPU  0 instructions:  107000001 cycles:   71388415 heartbeat IPC: 1.16845 cumulative IPC: 0.26480 (Simulation time: 0 hr 2 min 52 sec) 
Heartbeat CPU  0 instructions:  108000000 cycles:   72400469 heartbeat IPC: 0.98809 cumulative IPC: 0.29147 (Simulation time: 0 hr 2 min 54 sec) 
Heartbeat CPU  0 instructions:  109000000 cycles:   73710207 heartbeat IPC: 0.76351 cumulative IPC: 0.31297 (Simulation time: 0 hr 2 min 57 sec) 
Heartbeat CPU  0 instructions:  110000000 cycles:   74999620 heartbeat IPC: 0.77555 cumulative IPC: 0.33282 (Simulation time: 0 hr 3 min 0 sec) 
Heartbeat CPU  0 instructions:  111000003 cycles:   76327089 heartbeat IPC: 0.75332 cumulative IPC: 0.35061 (Simulation time: 0 hr 3 min 2 sec) 
Heartbeat CPU  0 instructions:  112000000 cycles:   77789175 heartbeat IPC: 0.68395 cumulative IPC: 0.36546 (Simulation time: 0 hr 3 min 5 sec) 
Heartbeat CPU  0 instructions:  113000003 cycles:   78786908 heartbeat IPC: 1.00228 cumulative IPC: 0.38424 (Simulation time: 0 hr 3 min 7 sec) 
Heartbeat CPU  0 instructions:  114000000 cycles:   79838157 heartbeat IPC: 0.95125 cumulative IPC: 0.40132 (Simulation time: 0 hr 3 min 9 sec) 
Heartbeat CPU  0 instructions:  115000000 cycles:   80800554 heartbeat IPC: 1.03907 cumulative IPC: 0.41845 (Simulation time: 0 hr 3 min 11 sec) 
Heartbeat CPU  0 instructions:  116000000 cycles:   81734421 heartbeat IPC: 1.07082 cumulative IPC: 0.43501 (Simulation time: 0 hr 3 min 13 sec) 
Heartbeat CPU  0 instructions:  117000003 cycles:   82728054 heartbeat IPC: 1.00641 cumulative IPC: 0.45004 (Simulation time: 0 hr 3 min 15 sec) 
Heartbeat CPU  0 instructions:  118000002 cycles:   83677492 heartbeat IPC: 1.05325 cumulative IPC: 0.46483 (Simulation time: 0 hr 3 min 18 sec) 
Heartbeat CPU  0 instructions:  119000000 cycles:   84624496 heartbeat IPC: 1.05596 cumulative IPC: 0.47894 (Simulation time: 0 hr 3 min 20 sec) 
Heartbeat CPU  0 instructions:  120000000 cycles:   85871807 heartbeat IPC: 0.80172 cumulative IPC: 0.48878 (Simulation time: 0 hr 3 min 22 sec) 
Heartbeat CPU  0 instructions:  121000000 cycles:   86828960 heartbeat IPC: 1.04476 cumulative IPC: 0.50149 (Simulation time: 0 hr 3 min 25 sec) 
Heartbeat CPU  0 instructions:  122000000 cycles:   87818602 heartbeat IPC: 1.01047 cumulative IPC: 0.51324 (Simulation time: 0 hr 3 min 27 sec) 
Heartbeat CPU  0 instructions:  123000000 cycles:   88751828 heartbeat IPC: 1.07155 cumulative IPC: 0.52513 (Simulation time: 0 hr 3 min 29 sec) 
Heartbeat CPU  0 instructions:  124000000 cycles:   89740063 heartbeat IPC: 1.01191 cumulative IPC: 0.53588 (Simulation time: 0 hr 3 min 31 sec) 
Heartbeat CPU  0 instructions:  125000001 cycles:   90755210 heartbeat IPC: 0.98508 cumulative IPC: 0.54583 (Simulation time: 0 hr 3 min 34 sec) 
Heartbeat CPU  0 instructions:  126000002 cycles:   91878475 heartbeat IPC: 0.89026 cumulative IPC: 0.55408 (Simulation time: 0 hr 3 min 36 sec) 
Heartbeat CPU  0 instructions:  127000003 cycles:   92845753 heartbeat IPC: 1.03383 cumulative IPC: 0.56377 (Simulation time: 0 hr 3 min 38 sec) 
Heartbeat CPU  0 instructions:  128000000 cycles:   93781698 heartbeat IPC: 1.06844 cumulative IPC: 0.57344 (Simulation time: 0 hr 3 min 40 sec) 
Heartbeat CPU  0 instructions:  129000001 cycles:   94677791 heartbeat IPC: 1.11596 cumulative IPC: 0.58322 (Simulation time: 0 hr 3 min 43 sec) 
Heartbeat CPU  0 instructions:  130000000 cycles:   95508179 heartbeat IPC: 1.20426 cumulative IPC: 0.59342 (Simulation time: 0 hr 3 min 45 sec) 
Heartbeat CPU  0 instructions:  131000000 cycles:   96600807 heartbeat IPC: 0.91522 cumulative IPC: 0.60023 (Simulation time: 0 hr 3 min 47 sec) 
Heartbeat CPU  0 instructions:  132000000 cycles:   97539106 heartbeat IPC: 1.06576 cumulative IPC: 0.60853 (Simulation time: 0 hr 3 min 49 sec) 
Heartbeat CPU  0 instructions:  133000002 cycles:   98555922 heartbeat IPC: 0.98346 cumulative IPC: 0.61564 (Simulation time: 0 hr 3 min 52 sec) 
Heartbeat CPU  0 instructions:  134000000 cycles:   99484183 heartbeat IPC: 1.07728 cumulative IPC: 0.62350 (Simulation time: 0 hr 3 min 54 sec) 
Heartbeat CPU  0 instructions:  135000000 cycles:  100382940 heartbeat IPC: 1.11265 cumulative IPC: 0.63143 (Simulation time: 0 hr 3 min 56 sec) 
Heartbeat CPU  0 instructions:  136000000 cycles:  101295329 heartbeat IPC: 1.09602 cumulative IPC: 0.63896 (Simulation time: 0 hr 3 min 58 sec) 
Heartbeat CPU  0 instructions:  137000001 cycles:  102260717 heartbeat IPC: 1.03585 cumulative IPC: 0.64564 (Simulation time: 0 hr 4 min 0 sec) 
Heartbeat CPU  0 instructions:  138000003 cycles:  103160205 heartbeat IPC: 1.11175 cumulative IPC: 0.65285 (Simulation time: 0 hr 4 min 3 sec) 
Heartbeat CPU  0 instructions:  139000000 cycles:  104060200 heartbeat IPC: 1.11111 cumulative IPC: 0.65982 (Simulation time: 0 hr 4 min 5 sec) 
Heartbeat CPU  0 instructions:  140000000 cycles:  104966902 heartbeat IPC: 1.10290 cumulative IPC: 0.66652 (Simulation time: 0 hr 4 min 7 sec) 
Heartbeat CPU  0 instructions:  141000000 cycles:  105832875 heartbeat IPC: 1.15477 cumulative IPC: 0.67346 (Simulation time: 0 hr 4 min 9 sec) 
Heartbeat CPU  0 instructions:  142000000 cycles:  106670172 heartbeat IPC: 1.19432 cumulative IPC: 0.68053 (Simulation time: 0 hr 4 min 11 sec) 
Heartbeat CPU  0 instructions:  143000000 cycles:  107852862 heartbeat IPC: 0.84553 cumulative IPC: 0.68363 (Simulation time: 0 hr 4 min 13 sec) 
Heartbeat CPU  0 instructions:  144000000 cycles:  109153470 heartbeat IPC: 0.76887 cumulative IPC: 0.68536 (Simulation time: 0 hr 4 min 15 sec) 
Heartbeat CPU  0 instructions:  145000000 cycles:  110323980 heartbeat IPC: 0.85433 cumulative IPC: 0.68838 (Simulation time: 0 hr 4 min 18 sec) 
Heartbeat CPU  0 instructions:  146000000 cycles:  111460391 heartbeat IPC: 0.87996 cumulative IPC: 0.69166 (Simulation time: 0 hr 4 min 20 sec) 
Heartbeat CPU  0 instructions:  147000000 cycles:  112739850 heartbeat IPC: 0.78158 cumulative IPC: 0.69336 (Simulation time: 0 hr 4 min 22 sec) 
Heartbeat CPU  0 instructions:  148000000 cycles:  114010554 heartbeat IPC: 0.78697 cumulative IPC: 0.69508 (Simulation time: 0 hr 4 min 24 sec) 
Heartbeat CPU  0 instructions:  149000001 cycles:  115247559 heartbeat IPC: 0.80840 cumulative IPC: 0.69707 (Simulation time: 0 hr 4 min 26 sec) 
Heartbeat CPU  0 instructions:  150000002 cycles:  116522219 heartbeat IPC: 0.78452 cumulative IPC: 0.69863 (Simulation time: 0 hr 4 min 28 sec) 
Heartbeat CPU  0 instructions:  151000001 cycles:  117837336 heartbeat IPC: 0.76039 cumulative IPC: 0.69974 (Simulation time: 0 hr 4 min 30 sec) 
Heartbeat CPU  0 instructions:  152000000 cycles:  118972109 heartbeat IPC: 0.88123 cumulative IPC: 0.70253 (Simulation time: 0 hr 4 min 32 sec) 
Heartbeat CPU  0 instructions:  153000003 cycles:  120244647 heartbeat IPC: 0.78583 cumulative IPC: 0.70393 (Simulation time: 0 hr 4 min 34 sec) 
Heartbeat CPU  0 instructions:  154000002 cycles:  121522950 heartbeat IPC: 0.78229 cumulative IPC: 0.70524 (Simulation time: 0 hr 4 min 36 sec) 
Heartbeat CPU  0 instructions:  155000003 cycles:  122804265 heartbeat IPC: 0.78045 cumulative IPC: 0.70648 (Simulation time: 0 hr 4 min 38 sec) 
Heartbeat CPU  0 instructions:  156000000 cycles:  124064307 heartbeat IPC: 0.79362 cumulative IPC: 0.70787 (Simulation time: 0 hr 4 min 40 sec) 
Heartbeat CPU  0 instructions:  157000002 cycles:  125331079 heartbeat IPC: 0.78941 cumulative IPC: 0.70915 (Simulation time: 0 hr 4 min 42 sec) 
Heartbeat CPU  0 instructions:  158000003 cycles:  126606740 heartbeat IPC: 0.78391 cumulative IPC: 0.71032 (Simulation time: 0 hr 4 min 44 sec) 
Heartbeat CPU  0 instructions:  159000000 cycles:  127885262 heartbeat IPC: 0.78215 cumulative IPC: 0.71143 (Simulation time: 0 hr 4 min 46 sec) 
Heartbeat CPU  0 instructions:  160000000 cycles:  129148512 heartbeat IPC: 0.79161 cumulative IPC: 0.71263 (Simulation time: 0 hr 4 min 48 sec) 
Heartbeat CPU  0 instructions:  161000001 cycles:  130324635 heartbeat IPC: 0.85025 cumulative IPC: 0.71453 (Simulation time: 0 hr 4 min 50 sec) 
Heartbeat CPU  0 instructions:  162000000 cycles:  131590346 heartbeat IPC: 0.79007 cumulative IPC: 0.71563 (Simulation time: 0 hr 4 min 52 sec) 
Heartbeat CPU  0 instructions:  163000000 cycles:  132871539 heartbeat IPC: 0.78052 cumulative IPC: 0.71658 (Simulation time: 0 hr 4 min 54 sec) 
Heartbeat CPU  0 instructions:  164000000 cycles:  134135103 heartbeat IPC: 0.79141 cumulative IPC: 0.71764 (Simulation time: 0 hr 4 min 56 sec) 
Heartbeat CPU  0 instructions:  165000001 cycles:  135403483 heartbeat IPC: 0.78841 cumulative IPC: 0.71863 (Simulation time: 0 hr 4 min 58 sec) 
Heartbeat CPU  0 instructions:  166000001 cycles:  136675282 heartbeat IPC: 0.78629 cumulative IPC: 0.71957 (Simulation time: 0 hr 5 min 1 sec) 
Heartbeat CPU  0 instructions:  167000000 cycles:  137952902 heartbeat IPC: 0.78270 cumulative IPC: 0.72044 (Simulation time: 0 hr 5 min 3 sec) 
Heartbeat CPU  0 instructions:  168000000 cycles:  139208658 heartbeat IPC: 0.79633 cumulative IPC: 0.72145 (Simulation time: 0 hr 5 min 5 sec) 
Heartbeat CPU  0 instructions:  169000003 cycles:  140489519 heartbeat IPC: 0.78073 cumulative IPC: 0.72224 (Simulation time: 0 hr 5 min 7 sec) 
Heartbeat CPU  0 instructions:  170000000 cycles:  141503833 heartbeat IPC: 0.98589 cumulative IPC: 0.72501 (Simulation time: 0 hr 5 min 10 sec) 
Heartbeat CPU  0 instructions:  171000001 cycles:  142521307 heartbeat IPC: 0.98283 cumulative IPC: 0.72770 (Simulation time: 0 hr 5 min 12 sec) 
Heartbeat CPU  0 instructions:  172000000 cycles:  143501849 heartbeat IPC: 1.01984 cumulative IPC: 0.73061 (Simulation time: 0 hr 5 min 14 sec) 
Heartbeat CPU  0 instructions:  173000001 cycles:  144482357 heartbeat IPC: 1.01988 cumulative IPC: 0.73346 (Simulation time: 0 hr 5 min 16 sec) 
Heartbeat CPU  0 instructions:  174000000 cycles:  145475632 heartbeat IPC: 1.00677 cumulative IPC: 0.73616 (Simulation time: 0 hr 5 min 18 sec) 
Heartbeat CPU  0 instructions:  175000000 cycles:  146474825 heartbeat IPC: 1.00081 cumulative IPC: 0.73876 (Simulation time: 0 hr 5 min 20 sec) 
Heartbeat CPU  0 instructions:  176000000 cycles:  147466474 heartbeat IPC: 1.00842 cumulative IPC: 0.74137 (Simulation time: 0 hr 5 min 22 sec) 
Heartbeat CPU  0 instructions:  177000000 cycles:  149035505 heartbeat IPC: 0.63734 cumulative IPC: 0.73980 (Simulation time: 0 hr 5 min 25 sec) 
Heartbeat CPU  0 instructions:  178000000 cycles:  150438326 heartbeat IPC: 0.71285 cumulative IPC: 0.73944 (Simulation time: 0 hr 5 min 27 sec) 
Heartbeat CPU  0 instructions:  179000002 cycles:  151383882 heartbeat IPC: 1.05758 cumulative IPC: 0.74227 (Simulation time: 0 hr 5 min 29 sec) 
Heartbeat CPU  0 instructions:  180000000 cycles:  152541577 heartbeat IPC: 0.86378 cumulative IPC: 0.74358 (Simulation time: 0 hr 5 min 31 sec) 
Heartbeat CPU  0 instructions:  181000000 cycles:  153933170 heartbeat IPC: 0.71860 cumulative IPC: 0.74326 (Simulation time: 0 hr 5 min 34 sec) 
Heartbeat CPU  0 instructions:  182000001 cycles:  155350868 heartbeat IPC: 0.70537 cumulative IPC: 0.74277 (Simulation time: 0 hr 5 min 36 sec) 
Heartbeat CPU  0 instructions:  183000000 cycles:  156715350 heartbeat IPC: 0.73288 cumulative IPC: 0.74265 (Simulation time: 0 hr 5 min 38 sec) 
Heartbeat CPU  0 instructions:  184000000 cycles:  158159556 heartbeat IPC: 0.69242 cumulative IPC: 0.74201 (Simulation time: 0 hr 5 min 40 sec) 
Heartbeat CPU  0 instructions:  185000000 cycles:  159587796 heartbeat IPC: 0.70016 cumulative IPC: 0.74149 (Simulation time: 0 hr 5 min 42 sec) 
Heartbeat CPU  0 instructions:  186000002 cycles:  161034563 heartbeat IPC: 0.69120 cumulative IPC: 0.74086 (Simulation time: 0 hr 5 min 44 sec) 
Heartbeat CPU  0 instructions:  187000001 cycles:  162448206 heartbeat IPC: 0.70739 cumulative IPC: 0.74046 (Simulation time: 0 hr 5 min 46 sec) 
Heartbeat CPU  0 instructions:  188000000 cycles:  163893826 heartbeat IPC: 0.69174 cumulative IPC: 0.73987 (Simulation time: 0 hr 5 min 48 sec) 
Heartbeat CPU  0 instructions:  189000001 cycles:  165248751 heartbeat IPC: 0.73805 cumulative IPC: 0.73985 (Simulation time: 0 hr 5 min 50 sec) 
Heartbeat CPU  0 instructions:  190000003 cycles:  166724650 heartbeat IPC: 0.67755 cumulative IPC: 0.73909 (Simulation time: 0 hr 5 min 52 sec) 
Heartbeat CPU  0 instructions:  191000002 cycles:  168219369 heartbeat IPC: 0.66902 cumulative IPC: 0.73824 (Simulation time: 0 hr 5 min 54 sec) 
Heartbeat CPU  0 instructions:  192000000 cycles:  169220339 heartbeat IPC: 0.99903 cumulative IPC: 0.74034 (Simulation time: 0 hr 5 min 56 sec) 
Heartbeat CPU  0 instructions:  193000000 cycles:  169975596 heartbeat IPC: 1.32405 cumulative IPC: 0.74387 (Simulation time: 0 hr 5 min 58 sec) 
Heartbeat CPU  0 instructions:  194000001 cycles:  170868547 heartbeat IPC: 1.11988 cumulative IPC: 0.74654 (Simulation time: 0 hr 6 min 0 sec) 
Heartbeat CPU  0 instructions:  195000003 cycles:  172348758 heartbeat IPC: 0.67558 cumulative IPC: 0.74571 (Simulation time: 0 hr 6 min 2 sec) 
Heartbeat CPU  0 instructions:  196000000 cycles:  174163977 heartbeat IPC: 0.55090 cumulative IPC: 0.74297 (Simulation time: 0 hr 6 min 5 sec) 
Heartbeat CPU  0 instructions:  197000003 cycles:  175797482 heartbeat IPC: 0.61218 cumulative IPC: 0.74134 (Simulation time: 0 hr 6 min 7 sec) 
Heartbeat CPU  0 instructions:  198000000 cycles:  177704148 heartbeat IPC: 0.52447 cumulative IPC: 0.73823 (Simulation time: 0 hr 6 min 9 sec) 
Heartbeat CPU  0 instructions:  199000002 cycles:  178305306 heartbeat IPC: 1.66346 cumulative IPC: 0.74240 (Simulation time: 0 hr 6 min 11 sec) 
Heartbeat CPU  0 instructions:  200000000 cycles:  179480988 heartbeat IPC: 0.85057 cumulative IPC: 0.74334 (Simulation time: 0 hr 6 min 13 sec) 
Heartbeat CPU  0 instructions:  201000003 cycles:  181105753 heartbeat IPC: 0.61548 cumulative IPC: 0.74182 (Simulation time: 0 hr 6 min 16 sec) 
Heartbeat CPU  0 instructions:  202000001 cycles:  182429067 heartbeat IPC: 0.75568 cumulative IPC: 0.74195 (Simulation time: 0 hr 6 min 18 sec) 
Heartbeat CPU  0 instructions:  203000003 cycles:  187670621 heartbeat IPC: 0.19078 cumulative IPC: 0.72171 (Simulation time: 0 hr 6 min 24 sec) 
Heartbeat CPU  0 instructions:  204000000 cycles:  195798562 heartbeat IPC: 0.12303 cumulative IPC: 0.68945 (Simulation time: 0 hr 6 min 33 sec) 
Heartbeat CPU  0 instructions:  205000003 cycles:  200499074 heartbeat IPC: 0.21274 cumulative IPC: 0.67504 (Simulation time: 0 hr 6 min 38 sec) 
Heartbeat CPU  0 instructions:  206000002 cycles:  203999596 heartbeat IPC: 0.28567 cumulative IPC: 0.66647 (Simulation time: 0 hr 6 min 42 sec) 
Heartbeat CPU  0 instructions:  207000001 cycles:  207486754 heartbeat IPC: 0.28677 cumulative IPC: 0.65833 (Simulation time: 0 hr 6 min 46 sec) 
Heartbeat CPU  0 instructions:  208000000 cycles:  208716869 heartbeat IPC: 0.81293 cumulative IPC: 0.65949 (Simulation time: 0 hr 6 min 49 sec) 
Heartbeat CPU  0 instructions:  209000001 cycles:  209669309 heartbeat IPC: 1.04994 cumulative IPC: 0.66175 (Simulation time: 0 hr 6 min 51 sec) 
Heartbeat CPU  0 instructions:  210000003 cycles:  210409535 heartbeat IPC: 1.35094 cumulative IPC: 0.66483 (Simulation time: 0 hr 6 min 53 sec) 
Heartbeat CPU  0 instructions:  211000003 cycles:  211761129 heartbeat IPC: 0.73987 cumulative IPC: 0.66544 (Simulation time: 0 hr 6 min 55 sec) 
Heartbeat CPU  0 instructions:  212000000 cycles:  213014946 heartbeat IPC: 0.79756 cumulative IPC: 0.66642 (Simulation time: 0 hr 6 min 58 sec) 
Heartbeat CPU  0 instructions:  213000000 cycles:  214358658 heartbeat IPC: 0.74421 cumulative IPC: 0.66704 (Simulation time: 0 hr 7 min 1 sec) 
Heartbeat CPU  0 instructions:  214000003 cycles:  215759815 heartbeat IPC: 0.71370 cumulative IPC: 0.66742 (Simulation time: 0 hr 7 min 3 sec) 
Heartbeat CPU  0 instructions:  215000002 cycles:  216937987 heartbeat IPC: 0.84877 cumulative IPC: 0.66867 (Simulation time: 0 hr 7 min 6 sec) 
Heartbeat CPU  0 instructions:  216000000 cycles:  217941118 heartbeat IPC: 0.99688 cumulative IPC: 0.67057 (Simulation time: 0 hr 7 min 8 sec) 
Heartbeat CPU  0 instructions:  217000002 cycles:  218943283 heartbeat IPC: 0.99784 cumulative IPC: 0.67245 (Simulation time: 0 hr 7 min 10 sec) 
Heartbeat CPU  0 instructions:  218000001 cycles:  219882217 heartbeat IPC: 1.06504 cumulative IPC: 0.67456 (Simulation time: 0 hr 7 min 13 sec) 
Heartbeat CPU  0 instructions:  219000001 cycles:  220833112 heartbeat IPC: 1.05164 cumulative IPC: 0.67660 (Simulation time: 0 hr 7 min 15 sec) 
Heartbeat CPU  0 instructions:  220000000 cycles:  221824539 heartbeat IPC: 1.00865 cumulative IPC: 0.67846 (Simulation time: 0 hr 7 min 17 sec) 
Heartbeat CPU  0 instructions:  221000000 cycles:  222754635 heartbeat IPC: 1.07516 cumulative IPC: 0.68054 (Simulation time: 0 hr 7 min 20 sec) 
Heartbeat CPU  0 instructions:  222000000 cycles:  223906805 heartbeat IPC: 0.86793 cumulative IPC: 0.68174 (Simulation time: 0 hr 7 min 22 sec) 
Heartbeat CPU  0 instructions:  223000001 cycles:  224990953 heartbeat IPC: 0.92238 cumulative IPC: 0.68319 (Simulation time: 0 hr 7 min 25 sec) 
Heartbeat CPU  0 instructions:  224000000 cycles:  225959719 heartbeat IPC: 1.03224 cumulative IPC: 0.68506 (Simulation time: 0 hr 7 min 27 sec) 
Heartbeat CPU  0 instructions:  225000000 cycles:  226954545 heartbeat IPC: 1.00520 cumulative IPC: 0.68681 (Simulation time: 0 hr 7 min 29 sec) 
Heartbeat CPU  0 instructions:  226000000 cycles:  227991432 heartbeat IPC: 0.96443 cumulative IPC: 0.68838 (Simulation time: 0 hr 7 min 32 sec) 
Heartbeat CPU  0 instructions:  227000003 cycles:  229100739 heartbeat IPC: 0.90147 cumulative IPC: 0.68967 (Simulation time: 0 hr 7 min 34 sec) 
Heartbeat CPU  0 instructions:  228000000 cycles:  229993865 heartbeat IPC: 1.11966 cumulative IPC: 0.69174 (Simulation time: 0 hr 7 min 37 sec) 
Heartbeat CPU  0 instructions:  229000003 cycles:  230882025 heartbeat IPC: 1.12593 cumulative IPC: 0.69382 (Simulation time: 0 hr 7 min 39 sec) 
Heartbeat CPU  0 instructions:  230000003 cycles:  231776474 heartbeat IPC: 1.11801 cumulative IPC: 0.69585 (Simulation time: 0 hr 7 min 41 sec) 
Heartbeat CPU  0 instructions:  231000000 cycles:  232869414 heartbeat IPC: 0.91496 cumulative IPC: 0.69712 (Simulation time: 0 hr 7 min 44 sec) 
Heartbeat CPU  0 instructions:  232000000 cycles:  233916003 heartbeat IPC: 0.95548 cumulative IPC: 0.69855 (Simulation time: 0 hr 7 min 46 sec) 
Heartbeat CPU  0 instructions:  233000000 cycles:  234810893 heartbeat IPC: 1.11746 cumulative IPC: 0.70053 (Simulation time: 0 hr 7 min 48 sec) 
Heartbeat CPU  0 instructions:  234000003 cycles:  235782013 heartbeat IPC: 1.02974 cumulative IPC: 0.70220 (Simulation time: 0 hr 7 min 51 sec) 
Heartbeat CPU  0 instructions:  235000001 cycles:  236739589 heartbeat IPC: 1.04430 cumulative IPC: 0.70391 (Simulation time: 0 hr 7 min 53 sec) 
Heartbeat CPU  0 instructions:  236000000 cycles:  237663792 heartbeat IPC: 1.08201 cumulative IPC: 0.70572 (Simulation time: 0 hr 7 min 55 sec) 
Heartbeat CPU  0 instructions:  237000000 cycles:  238606846 heartbeat IPC: 1.06038 cumulative IPC: 0.70745 (Simulation time: 0 hr 7 min 58 sec) 
Heartbeat CPU  0 instructions:  238000002 cycles:  239498775 heartbeat IPC: 1.12117 cumulative IPC: 0.70935 (Simulation time: 0 hr 8 min 0 sec) 
Heartbeat CPU  0 instructions:  239000001 cycles:  240364432 heartbeat IPC: 1.15519 cumulative IPC: 0.71132 (Simulation time: 0 hr 8 min 2 sec) 
Heartbeat CPU  0 instructions:  240000000 cycles:  241208986 heartbeat IPC: 1.18406 cumulative IPC: 0.71336 (Simulation time: 0 hr 8 min 4 sec) 
Heartbeat CPU  0 instructions:  241000000 cycles:  242336552 heartbeat IPC: 0.88687 cumulative IPC: 0.71435 (Simulation time: 0 hr 8 min 7 sec) 
Heartbeat CPU  0 instructions:  242000001 cycles:  243257170 heartbeat IPC: 1.08623 cumulative IPC: 0.71607 (Simulation time: 0 hr 8 min 9 sec) 
Heartbeat CPU  0 instructions:  243000001 cycles:  244184671 heartbeat IPC: 1.07817 cumulative IPC: 0.71776 (Simulation time: 0 hr 8 min 11 sec) 
Heartbeat CPU  0 instructions:  244000000 cycles:  245045922 heartbeat IPC: 1.16110 cumulative IPC: 0.71967 (Simulation time: 0 hr 8 min 13 sec) 
Heartbeat CPU  0 instructions:  245000003 cycles:  246111724 heartbeat IPC: 0.93826 cumulative IPC: 0.72083 (Simulation time: 0 hr 8 min 16 sec) 
Heartbeat CPU  0 instructions:  246000001 cycles:  247213750 heartbeat IPC: 0.90742 cumulative IPC: 0.72184 (Simulation time: 0 hr 8 min 18 sec) 
Heartbeat CPU  0 instructions:  247000002 cycles:  248294657 heartbeat IPC: 0.92515 cumulative IPC: 0.72292 (Simulation time: 0 hr 8 min 20 sec) 
Heartbeat CPU  0 instructions:  248000000 cycles:  249574613 heartbeat IPC: 0.78128 cumulative IPC: 0.72329 (Simulation time: 0 hr 8 min 22 sec) 
Heartbeat CPU  0 instructions:  249000003 cycles:  250811889 heartbeat IPC: 0.80823 cumulative IPC: 0.72380 (Simulation time: 0 hr 8 min 24 sec) 
Heartbeat CPU  0 instructions:  250000003 cycles:  251934987 heartbeat IPC: 0.89039 cumulative IPC: 0.72470 (Simulation time: 0 hr 8 min 26 sec) 
Heartbeat CPU  0 instructions:  251000001 cycles:  253199142 heartbeat IPC: 0.79104 cumulative IPC: 0.72511 (Simulation time: 0 hr 8 min 29 sec) 
Heartbeat CPU  0 instructions:  252000000 cycles:  254462564 heartbeat IPC: 0.79150 cumulative IPC: 0.72551 (Simulation time: 0 hr 8 min 31 sec) 
Heartbeat CPU  0 instructions:  253000001 cycles:  255735112 heartbeat IPC: 0.78583 cumulative IPC: 0.72587 (Simulation time: 0 hr 8 min 33 sec) 
Heartbeat CPU  0 instructions:  254000001 cycles:  257009261 heartbeat IPC: 0.78484 cumulative IPC: 0.72622 (Simulation time: 0 hr 8 min 35 sec) 
Heartbeat CPU  0 instructions:  255000000 cycles:  258235881 heartbeat IPC: 0.81525 cumulative IPC: 0.72674 (Simulation time: 0 hr 8 min 37 sec) 
Heartbeat CPU  0 instructions:  256000000 cycles:  259284504 heartbeat IPC: 0.95363 cumulative IPC: 0.72785 (Simulation time: 0 hr 8 min 39 sec) 
Heartbeat CPU  0 instructions:  257000002 cycles:  260515403 heartbeat IPC: 0.81242 cumulative IPC: 0.72833 (Simulation time: 0 hr 8 min 42 sec) 
Heartbeat CPU  0 instructions:  258000001 cycles:  261787698 heartbeat IPC: 0.78598 cumulative IPC: 0.72867 (Simulation time: 0 hr 8 min 44 sec) 
Heartbeat CPU  0 instructions:  259000000 cycles:  263053836 heartbeat IPC: 0.78980 cumulative IPC: 0.72902 (Simulation time: 0 hr 8 min 46 sec) 
Heartbeat CPU  0 instructions:  260000000 cycles:  264309978 heartbeat IPC: 0.79609 cumulative IPC: 0.72941 (Simulation time: 0 hr 8 min 48 sec) 
Heartbeat CPU  0 instructions:  261000000 cycles:  265563330 heartbeat IPC: 0.79786 cumulative IPC: 0.72980 (Simulation time: 0 hr 8 min 50 sec) 
Heartbeat CPU  0 instructions:  262000000 cycles:  266826051 heartbeat IPC: 0.79194 cumulative IPC: 0.73015 (Simulation time: 0 hr 8 min 52 sec) 
Heartbeat CPU  0 instructions:  263000001 cycles:  267949096 heartbeat IPC: 0.89044 cumulative IPC: 0.73096 (Simulation time: 0 hr 8 min 55 sec) 
Heartbeat CPU  0 instructions:  264000000 cycles:  269116230 heartbeat IPC: 0.85680 cumulative IPC: 0.73161 (Simulation time: 0 hr 8 min 57 sec) 
Heartbeat CPU  0 instructions:  265000000 cycles:  270385454 heartbeat IPC: 0.78788 cumulative IPC: 0.73193 (Simulation time: 0 hr 8 min 59 sec) 
Heartbeat CPU  0 instructions:  266000002 cycles:  271534089 heartbeat IPC: 0.87060 cumulative IPC: 0.73263 (Simulation time: 0 hr 9 min 1 sec) 
Heartbeat CPU  0 instructions:  267000002 cycles:  272792700 heartbeat IPC: 0.79453 cumulative IPC: 0.73297 (Simulation time: 0 hr 9 min 3 sec) 
Heartbeat CPU  0 instructions:  268000000 cycles:  274053276 heartbeat IPC: 0.79329 cumulative IPC: 0.73331 (Simulation time: 0 hr 9 min 6 sec) 
Heartbeat CPU  0 instructions:  269000001 cycles:  275320250 heartbeat IPC: 0.78928 cumulative IPC: 0.73361 (Simulation time: 0 hr 9 min 8 sec) 
Heartbeat CPU  0 instructions:  270000001 cycles:  276576351 heartbeat IPC: 0.79611 cumulative IPC: 0.73395 (Simulation time: 0 hr 9 min 10 sec) 
Heartbeat CPU  0 instructions:  271000000 cycles:  277824893 heartbeat IPC: 0.80093 cumulative IPC: 0.73431 (Simulation time: 0 hr 9 min 12 sec) 
Heartbeat CPU  0 instructions:  272000000 cycles:  279109538 heartbeat IPC: 0.77843 cumulative IPC: 0.73455 (Simulation time: 0 hr 9 min 14 sec) 
Heartbeat CPU  0 instructions:  273000002 cycles:  280123305 heartbeat IPC: 0.98642 cumulative IPC: 0.73564 (Simulation time: 0 hr 9 min 17 sec) 
Heartbeat CPU  0 instructions:  274000000 cycles:  281126907 heartbeat IPC: 0.99641 cumulative IPC: 0.73675 (Simulation time: 0 hr 9 min 19 sec) 
Heartbeat CPU  0 instructions:  275000003 cycles:  282138185 heartbeat IPC: 0.98885 cumulative IPC: 0.73782 (Simulation time: 0 hr 9 min 21 sec) 
Heartbeat CPU  0 instructions:  276000000 cycles:  283124673 heartbeat IPC: 1.01369 cumulative IPC: 0.73896 (Simulation time: 0 hr 9 min 23 sec) 
Heartbeat CPU  0 instructions:  277000000 cycles:  284098736 heartbeat IPC: 1.02663 cumulative IPC: 0.74014 (Simulation time: 0 hr 9 min 26 sec) 
Heartbeat CPU  0 instructions:  278000003 cycles:  285092329 heartbeat IPC: 1.00645 cumulative IPC: 0.74124 (Simulation time: 0 hr 9 min 28 sec) 
Heartbeat CPU  0 instructions:  279000003 cycles:  286078349 heartbeat IPC: 1.01418 cumulative IPC: 0.74235 (Simulation time: 0 hr 9 min 30 sec) 
Heartbeat CPU  0 instructions:  280000000 cycles:  287634200 heartbeat IPC: 0.64273 cumulative IPC: 0.74172 (Simulation time: 0 hr 9 min 33 sec) 
Heartbeat CPU  0 instructions:  281000003 cycles:  289075747 heartbeat IPC: 0.69370 cumulative IPC: 0.74143 (Simulation time: 0 hr 9 min 35 sec) 
Heartbeat CPU  0 instructions:  282000001 cycles:  290015546 heartbeat IPC: 1.06406 cumulative IPC: 0.74267 (Simulation time: 0 hr 9 min 37 sec) 
Heartbeat CPU  0 instructions:  283000002 cycles:  291177188 heartbeat IPC: 0.86085 cumulative IPC: 0.74323 (Simulation time: 0 hr 9 min 40 sec) 
Heartbeat CPU  0 instructions:  284000000 cycles:  292566484 heartbeat IPC: 0.71979 cumulative IPC: 0.74310 (Simulation time: 0 hr 9 min 42 sec) 
Heartbeat CPU  0 instructions:  285000003 cycles:  293989323 heartbeat IPC: 0.70282 cumulative IPC: 0.74287 (Simulation time: 0 hr 9 min 44 sec) 
Heartbeat CPU  0 instructions:  286000001 cycles:  295344796 heartbeat IPC: 0.73775 cumulative IPC: 0.74284 (Simulation time: 0 hr 9 min 47 sec) 
Heartbeat CPU  0 instructions:  287000001 cycles:  296853765 heartbeat IPC: 0.66270 cumulative IPC: 0.74236 (Simulation time: 0 hr 9 min 49 sec) 
Heartbeat CPU  0 instructions:  288000000 cycles:  298269286 heartbeat IPC: 0.70645 cumulative IPC: 0.74216 (Simulation time: 0 hr 9 min 51 sec) 
Heartbeat CPU  0 instructions:  289000003 cycles:  299695189 heartbeat IPC: 0.70131 cumulative IPC: 0.74193 (Simulation time: 0 hr 9 min 53 sec) 
Heartbeat CPU  0 instructions:  290000002 cycles:  301086258 heartbeat IPC: 0.71887 cumulative IPC: 0.74180 (Simulation time: 0 hr 9 min 55 sec) 
Heartbeat CPU  0 instructions:  291000002 cycles:  302552835 heartbeat IPC: 0.68186 cumulative IPC: 0.74146 (Simulation time: 0 hr 9 min 57 sec) 
Heartbeat CPU  0 instructions:  292000000 cycles:  303909225 heartbeat IPC: 0.73725 cumulative IPC: 0.74144 (Simulation time: 0 hr 9 min 59 sec) 
Heartbeat CPU  0 instructions:  293000002 cycles:  305378609 heartbeat IPC: 0.68056 cumulative IPC: 0.74110 (Simulation time: 0 hr 10 min 1 sec) 
Heartbeat CPU  0 instructions:  294000000 cycles:  306867668 heartbeat IPC: 0.67156 cumulative IPC: 0.74070 (Simulation time: 0 hr 10 min 3 sec) 
Heartbeat CPU  0 instructions:  295000001 cycles:  307757038 heartbeat IPC: 1.12439 cumulative IPC: 0.74200 (Simulation time: 0 hr 10 min 5 sec) 
Heartbeat CPU  0 instructions:  296000000 cycles:  308617507 heartbeat IPC: 1.16216 cumulative IPC: 0.74337 (Simulation time: 0 hr 10 min 7 sec) 
Heartbeat CPU  0 instructions:  297000002 cycles:  309470740 heartbeat IPC: 1.17202 cumulative IPC: 0.74475 (Simulation time: 0 hr 10 min 10 sec) 
Heartbeat CPU  0 instructions:  298000000 cycles:  311104800 heartbeat IPC: 0.61197 cumulative IPC: 0.74394 (Simulation time: 0 hr 10 min 12 sec) 
Heartbeat CPU  0 instructions:  299000002 cycles:  312867851 heartbeat IPC: 0.56720 cumulative IPC: 0.74277 (Simulation time: 0 hr 10 min 15 sec) 
Heartbeat CPU  0 instructions:  300000000 cycles:  314473069 heartbeat IPC: 0.62297 cumulative IPC: 0.74206 (Simulation time: 0 hr 10 min 17 sec) 
Heartbeat CPU  0 instructions:  301000000 cycles:  316353477 heartbeat IPC: 0.53180 cumulative IPC: 0.74060 (Simulation time: 0 hr 10 min 20 sec) 
Heartbeat CPU  0 instructions:  302000002 cycles:  316932998 heartbeat IPC: 1.72557 cumulative IPC: 0.74270 (Simulation time: 0 hr 10 min 21 sec) 
Heartbeat CPU  0 instructions:  303000001 cycles:  318173161 heartbeat IPC: 0.80634 cumulative IPC: 0.74299 (Simulation time: 0 hr 10 min 24 sec) 
Heartbeat CPU  0 instructions:  304000000 cycles:  319670632 heartbeat IPC: 0.66779 cumulative IPC: 0.74258 (Simulation time: 0 hr 10 min 26 sec) 
Heartbeat CPU  0 instructions:  305000001 cycles:  321200489 heartbeat IPC: 0.65366 cumulative IPC: 0.74209 (Simulation time: 0 hr 10 min 29 sec) 
Heartbeat CPU  0 instructions:  306000002 cycles:  327069549 heartbeat IPC: 0.17039 cumulative IPC: 0.73020 (Simulation time: 0 hr 10 min 36 sec) 
Heartbeat CPU  0 instructions:  307000001 cycles:  335230514 heartbeat IPC: 0.12253 cumulative IPC: 0.71311 (Simulation time: 0 hr 10 min 44 sec) 
Heartbeat CPU  0 instructions:  308000000 cycles:  339381473 heartbeat IPC: 0.24091 cumulative IPC: 0.70645 (Simulation time: 0 hr 10 min 49 sec) 
Heartbeat CPU  0 instructions:  309000002 cycles:  342876318 heartbeat IPC: 0.28614 cumulative IPC: 0.70152 (Simulation time: 0 hr 10 min 53 sec) 
Heartbeat CPU  0 instructions:  310000003 cycles:  346113436 heartbeat IPC: 0.30892 cumulative IPC: 0.69730 (Simulation time: 0 hr 10 min 57 sec) 
Heartbeat CPU  0 instructions:  311000002 cycles:  347344086 heartbeat IPC: 0.81258 cumulative IPC: 0.69777 (Simulation time: 0 hr 10 min 59 sec) 
Heartbeat CPU  0 instructions:  312000000 cycles:  348309282 heartbeat IPC: 1.03606 cumulative IPC: 0.69885 (Simulation time: 0 hr 11 min 1 sec) 
Heartbeat CPU  0 instructions:  313000001 cycles:  349119043 heartbeat IPC: 1.23493 cumulative IPC: 0.70028 (Simulation time: 0 hr 11 min 3 sec) 
Heartbeat CPU  0 instructions:  314000000 cycles:  350450842 heartbeat IPC: 0.75086 cumulative IPC: 0.70050 (Simulation time: 0 hr 11 min 6 sec) 
Heartbeat CPU  0 instructions:  315000003 cycles:  351695430 heartbeat IPC: 0.80348 cumulative IPC: 0.70092 (Simulation time: 0 hr 11 min 9 sec) 
Heartbeat CPU  0 instructions:  316000000 cycles:  353047045 heartbeat IPC: 0.73985 cumulative IPC: 0.70109 (Simulation time: 0 hr 11 min 11 sec) 
Heartbeat CPU  0 instructions:  317000002 cycles:  354455318 heartbeat IPC: 0.71009 cumulative IPC: 0.70113 (Simulation time: 0 hr 11 min 14 sec) 
Heartbeat CPU  0 instructions:  318000003 cycles:  355578404 heartbeat IPC: 0.89040 cumulative IPC: 0.70181 (Simulation time: 0 hr 11 min 16 sec) 
Heartbeat CPU  0 instructions:  319000000 cycles:  356589004 heartbeat IPC: 0.98951 cumulative IPC: 0.70274 (Simulation time: 0 hr 11 min 19 sec) 
Heartbeat CPU  0 instructions:  320000000 cycles:  357540863 heartbeat IPC: 1.05058 cumulative IPC: 0.70380 (Simulation time: 0 hr 11 min 21 sec) 
Heartbeat CPU  0 instructions:  321000003 cycles:  358527614 heartbeat IPC: 1.01343 cumulative IPC: 0.70478 (Simulation time: 0 hr 11 min 23 sec) 
Heartbeat CPU  0 instructions:  322000003 cycles:  359490879 heartbeat IPC: 1.03814 cumulative IPC: 0.70580 (Simulation time: 0 hr 11 min 26 sec) 
Heartbeat CPU  0 instructions:  323000001 cycles:  360463210 heartbeat IPC: 1.02845 cumulative IPC: 0.70679 (Simulation time: 0 hr 11 min 28 sec) 
Heartbeat CPU  0 instructions:  324000000 cycles:  361451009 heartbeat IPC: 1.01235 cumulative IPC: 0.70775 (Simulation time: 0 hr 11 min 30 sec) 
Heartbeat CPU  0 instructions:  325000002 cycles:  362597591 heartbeat IPC: 0.87216 cumulative IPC: 0.70834 (Simulation time: 0 hr 11 min 33 sec) 
Heartbeat CPU  0 instructions:  326000001 cycles:  363652166 heartbeat IPC: 0.94825 cumulative IPC: 0.70913 (Simulation time: 0 hr 11 min 35 sec) 
Heartbeat CPU  0 instructions:  327000002 cycles:  364663729 heartbeat IPC: 0.98857 cumulative IPC: 0.71002 (Simulation time: 0 hr 11 min 38 sec) 
Heartbeat CPU  0 instructions:  328000000 cycles:  365620324 heartbeat IPC: 1.04537 cumulative IPC: 0.71102 (Simulation time: 0 hr 11 min 40 sec) 
Heartbeat CPU  0 instructions:  329000000 cycles:  366794531 heartbeat IPC: 0.85164 cumulative IPC: 0.71153 (Simulation time: 0 hr 11 min 43 sec) 
Heartbeat CPU  0 instructions:  330000002 cycles:  367720092 heartbeat IPC: 1.08043 cumulative IPC: 0.71259 (Simulation time: 0 hr 11 min 45 sec) 
Heartbeat CPU  0 instructions:  331000003 cycles:  368690461 heartbeat IPC: 1.03054 cumulative IPC: 0.71354 (Simulation time: 0 hr 11 min 47 sec) 
Heartbeat CPU  0 instructions:  332000000 cycles:  369665501 heartbeat IPC: 1.02560 cumulative IPC: 0.71448 (Simulation time: 0 hr 11 min 50 sec) 
Heartbeat CPU  0 instructions:  333000001 cycles:  370566018 heartbeat IPC: 1.11047 cumulative IPC: 0.71557 (Simulation time: 0 hr 11 min 52 sec) 
Heartbeat CPU  0 instructions:  334000000 cycles:  371484765 heartbeat IPC: 1.08844 cumulative IPC: 0.71662 (Simulation time: 0 hr 11 min 54 sec) 
Heartbeat CPU  0 instructions:  335000000 cycles:  372400693 heartbeat IPC: 1.09179 cumulative IPC: 0.71767 (Simulation time: 0 hr 11 min 57 sec) 
Heartbeat CPU  0 instructions:  336000000 cycles:  373264608 heartbeat IPC: 1.15752 cumulative IPC: 0.71883 (Simulation time: 0 hr 11 min 59 sec) 
Heartbeat CPU  0 instructions:  337000002 cycles:  374152147 heartbeat IPC: 1.12671 cumulative IPC: 0.71993 (Simulation time: 0 hr 12 min 1 sec) 
Heartbeat CPU  0 instructions:  338000000 cycles:  375032618 heartbeat IPC: 1.13575 cumulative IPC: 0.72104 (Simulation time: 0 hr 12 min 3 sec) 
Heartbeat CPU  0 instructions:  339000000 cycles:  376207204 heartbeat IPC: 0.85136 cumulative IPC: 0.72150 (Simulation time: 0 hr 12 min 6 sec) 
Heartbeat CPU  0 instructions:  340000000 cycles:  377115230 heartbeat IPC: 1.10129 cumulative IPC: 0.72254 (Simulation time: 0 hr 12 min 8 sec) 
Heartbeat CPU  0 instructions:  341000003 cycles:  377978171 heartbeat IPC: 1.15883 cumulative IPC: 0.72367 (Simulation time: 0 hr 12 min 10 sec) 
Heartbeat CPU  0 instructions:  342000000 cycles:  379074620 heartbeat IPC: 0.91203 cumulative IPC: 0.72429 (Simulation time: 0 hr 12 min 13 sec) 
Heartbeat CPU  0 instructions:  343000001 cycles:  380103818 heartbeat IPC: 0.97163 cumulative IPC: 0.72505 (Simulation time: 0 hr 12 min 15 sec) 
Heartbeat CPU  0 instructions:  344000000 cycles:  381041094 heartbeat IPC: 1.06692 cumulative IPC: 0.72600 (Simulation time: 0 hr 12 min 17 sec) 
Heartbeat CPU  0 instructions:  345000003 cycles:  381962561 heartbeat IPC: 1.08523 cumulative IPC: 0.72698 (Simulation time: 0 hr 12 min 20 sec) 
Heartbeat CPU  0 instructions:  346000001 cycles:  382887858 heartbeat IPC: 1.08073 cumulative IPC: 0.72795 (Simulation time: 0 hr 12 min 22 sec) 
Heartbeat CPU  0 instructions:  347000002 cycles:  383748688 heartbeat IPC: 1.16167 cumulative IPC: 0.72905 (Simulation time: 0 hr 12 min 24 sec) 
Heartbeat CPU  0 instructions:  348000000 cycles:  384602561 heartbeat IPC: 1.17113 cumulative IPC: 0.73017 (Simulation time: 0 hr 12 min 26 sec) 
Heartbeat CPU  0 instructions:  349000001 cycles:  385900347 heartbeat IPC: 0.77054 cumulative IPC: 0.73032 (Simulation time: 0 hr 12 min 28 sec) 
Heartbeat CPU  0 instructions:  350000001 cycles:  386842913 heartbeat IPC: 1.06093 cumulative IPC: 0.73123 (Simulation time: 0 hr 12 min 31 sec) 
Heartbeat CPU  0 instructions:  351000000 cycles:  387789959 heartbeat IPC: 1.05591 cumulative IPC: 0.73213 (Simulation time: 0 hr 12 min 33 sec) 
Heartbeat CPU  0 instructions:  352000000 cycles:  388986709 heartbeat IPC: 0.83560 cumulative IPC: 0.73249 (Simulation time: 0 hr 12 min 35 sec) 
Heartbeat CPU  0 instructions:  353000001 cycles:  390264658 heartbeat IPC: 0.78250 cumulative IPC: 0.73267 (Simulation time: 0 hr 12 min 37 sec) 
Heartbeat CPU  0 instructions:  354000000 cycles:  391413381 heartbeat IPC: 0.87053 cumulative IPC: 0.73313 (Simulation time: 0 hr 12 min 40 sec) 
Heartbeat CPU  0 instructions:  355000003 cycles:  392687680 heartbeat IPC: 0.78475 cumulative IPC: 0.73332 (Simulation time: 0 hr 12 min 42 sec) 
Heartbeat CPU  0 instructions:  356000000 cycles:  393838801 heartbeat IPC: 0.86872 cumulative IPC: 0.73377 (Simulation time: 0 hr 12 min 44 sec) 
Heartbeat CPU  0 instructions:  357000000 cycles:  394927325 heartbeat IPC: 0.91868 cumulative IPC: 0.73434 (Simulation time: 0 hr 12 min 46 sec) 
Heartbeat CPU  0 instructions:  358000001 cycles:  395865464 heartbeat IPC: 1.06594 cumulative IPC: 0.73523 (Simulation time: 0 hr 12 min 48 sec) 
Heartbeat CPU  0 instructions:  359000002 cycles:  397010199 heartbeat IPC: 0.87357 cumulative IPC: 0.73568 (Simulation time: 0 hr 12 min 51 sec) 
Heartbeat CPU  0 instructions:  360000000 cycles:  398268238 heartbeat IPC: 0.79489 cumulative IPC: 0.73589 (Simulation time: 0 hr 12 min 53 sec) 
Heartbeat CPU  0 instructions:  361000001 cycles:  399523235 heartbeat IPC: 0.79682 cumulative IPC: 0.73610 (Simulation time: 0 hr 12 min 55 sec) 
Heartbeat CPU  0 instructions:  362000000 cycles:  400791297 heartbeat IPC: 0.78860 cumulative IPC: 0.73629 (Simulation time: 0 hr 12 min 57 sec) 
Heartbeat CPU  0 instructions:  363000001 cycles:  402050894 heartbeat IPC: 0.79391 cumulative IPC: 0.73649 (Simulation time: 0 hr 12 min 59 sec) 
Heartbeat CPU  0 instructions:  364000000 cycles:  403313134 heartbeat IPC: 0.79224 cumulative IPC: 0.73669 (Simulation time: 0 hr 13 min 1 sec) 
Heartbeat CPU  0 instructions:  365000000 cycles:  404564942 heartbeat IPC: 0.79884 cumulative IPC: 0.73691 (Simulation time: 0 hr 13 min 4 sec) 
Heartbeat CPU  0 instructions:  366000000 cycles:  405794531 heartbeat IPC: 0.81328 cumulative IPC: 0.73717 (Simulation time: 0 hr 13 min 6 sec) 
Heartbeat CPU  0 instructions:  367000003 cycles:  407030135 heartbeat IPC: 0.80932 cumulative IPC: 0.73741 (Simulation time: 0 hr 13 min 8 sec) 
Heartbeat CPU  0 instructions:  368000000 cycles:  408307604 heartbeat IPC: 0.78280 cumulative IPC: 0.73757 (Simulation time: 0 hr 13 min 10 sec) 
Heartbeat CPU  0 instructions:  369000000 cycles:  409528183 heartbeat IPC: 0.81928 cumulative IPC: 0.73785 (Simulation time: 0 hr 13 min 12 sec) 
Heartbeat CPU  0 instructions:  370000000 cycles:  410769125 heartbeat IPC: 0.80584 cumulative IPC: 0.73808 (Simulation time: 0 hr 13 min 15 sec) 
Heartbeat CPU  0 instructions:  371000002 cycles:  412019156 heartbeat IPC: 0.79998 cumulative IPC: 0.73829 (Simulation time: 0 hr 13 min 17 sec) 
Heartbeat CPU  0 instructions:  372000000 cycles:  413277463 heartbeat IPC: 0.79472 cumulative IPC: 0.73848 (Simulation time: 0 hr 13 min 19 sec) 
Heartbeat CPU  0 instructions:  373000000 cycles:  414531384 heartbeat IPC: 0.79750 cumulative IPC: 0.73868 (Simulation time: 0 hr 13 min 21 sec) 
Heartbeat CPU  0 instructions:  374000001 cycles:  415793271 heartbeat IPC: 0.79246 cumulative IPC: 0.73886 (Simulation time: 0 hr 13 min 23 sec) 
Heartbeat CPU  0 instructions:  375000000 cycles:  417053077 heartbeat IPC: 0.79377 cumulative IPC: 0.73905 (Simulation time: 0 hr 13 min 25 sec) 
Heartbeat CPU  0 instructions:  376000000 cycles:  418325019 heartbeat IPC: 0.78620 cumulative IPC: 0.73921 (Simulation time: 0 hr 13 min 28 sec) 
Heartbeat CPU  0 instructions:  377000001 cycles:  419529118 heartbeat IPC: 0.83050 cumulative IPC: 0.73950 (Simulation time: 0 hr 13 min 30 sec) 
Heartbeat CPU  0 instructions:  378000002 cycles:  420541172 heartbeat IPC: 0.98809 cumulative IPC: 0.74017 (Simulation time: 0 hr 13 min 32 sec) 
Heartbeat CPU  0 instructions:  379000003 cycles:  421525357 heartbeat IPC: 1.01607 cumulative IPC: 0.74089 (Simulation time: 0 hr 13 min 34 sec) 
Heartbeat CPU  0 instructions:  380000000 cycles:  422521670 heartbeat IPC: 1.00370 cumulative IPC: 0.74159 (Simulation time: 0 hr 13 min 37 sec) 
Heartbeat CPU  0 instructions:  381000002 cycles:  423514496 heartbeat IPC: 1.00723 cumulative IPC: 0.74228 (Simulation time: 0 hr 13 min 39 sec) 
Heartbeat CPU  0 instructions:  382000001 cycles:  424514560 heartbeat IPC: 0.99994 cumulative IPC: 0.74296 (Simulation time: 0 hr 13 min 41 sec) 
Heartbeat CPU  0 instructions:  383000002 cycles:  425491951 heartbeat IPC: 1.02313 cumulative IPC: 0.74368 (Simulation time: 0 hr 13 min 44 sec) 
Heartbeat CPU  0 instructions:  384000000 cycles:  426459797 heartbeat IPC: 1.03322 cumulative IPC: 0.74442 (Simulation time: 0 hr 13 min 46 sec) 
Heartbeat CPU  0 instructions:  385000001 cycles:  428189908 heartbeat IPC: 0.57800 cumulative IPC: 0.74367 (Simulation time: 0 hr 13 min 49 sec) 
Heartbeat CPU  0 instructions:  386000000 cycles:  429414648 heartbeat IPC: 0.81650 cumulative IPC: 0.74390 (Simulation time: 0 hr 13 min 51 sec) 
Heartbeat CPU  0 instructions:  387000002 cycles:  430438718 heartbeat IPC: 0.97650 cumulative IPC: 0.74452 (Simulation time: 0 hr 13 min 53 sec) 
Heartbeat CPU  0 instructions:  388000000 cycles:  431582147 heartbeat IPC: 0.87456 cumulative IPC: 0.74490 (Simulation time: 0 hr 13 min 55 sec) 
Heartbeat CPU  0 instructions:  389000001 cycles:  433080867 heartbeat IPC: 0.66724 cumulative IPC: 0.74460 (Simulation time: 0 hr 13 min 58 sec) 
Heartbeat CPU  0 instructions:  390000000 cycles:  434408412 heartbeat IPC: 0.75327 cumulative IPC: 0.74463 (Simulation time: 0 hr 14 min 0 sec) 
Heartbeat CPU  0 instructions:  391000000 cycles:  435919877 heartbeat IPC: 0.66161 cumulative IPC: 0.74431 (Simulation time: 0 hr 14 min 2 sec) 
Heartbeat CPU  0 instructions:  392000000 cycles:  437279804 heartbeat IPC: 0.73533 cumulative IPC: 0.74428 (Simulation time: 0 hr 14 min 4 sec) 
Heartbeat CPU  0 instructions:  393000001 cycles:  438731140 heartbeat IPC: 0.68902 cumulative IPC: 0.74407 (Simulation time: 0 hr 14 min 6 sec) 
Heartbeat CPU  0 instructions:  394000001 cycles:  440143460 heartbeat IPC: 0.70805 cumulative IPC: 0.74395 (Simulation time: 0 hr 14 min 8 sec) 
Heartbeat CPU  0 instructions:  395000001 cycles:  441597055 heartbeat IPC: 0.68795 cumulative IPC: 0.74374 (Simulation time: 0 hr 14 min 10 sec) 
Heartbeat CPU  0 instructions:  396000000 cycles:  442988266 heartbeat IPC: 0.71880 cumulative IPC: 0.74365 (Simulation time: 0 hr 14 min 13 sec) 
Heartbeat CPU  0 instructions:  397000000 cycles:  444477280 heartbeat IPC: 0.67159 cumulative IPC: 0.74339 (Simulation time: 0 hr 14 min 15 sec) 
Heartbeat CPU  0 instructions:  398000000 cycles:  445947170 heartbeat IPC: 0.68032 cumulative IPC: 0.74315 (Simulation time: 0 hr 14 min 16 sec) 
Heartbeat CPU  0 instructions:  399000000 cycles:  447125422 heartbeat IPC: 0.84871 cumulative IPC: 0.74346 (Simulation time: 0 hr 14 min 18 sec) 
Heartbeat CPU  0 instructions:  400000000 cycles:  447767303 heartbeat IPC: 1.55792 cumulative IPC: 0.74476 (Simulation time: 0 hr 14 min 21 sec) 
Heartbeat CPU  0 instructions:  401000001 cycles:  448731126 heartbeat IPC: 1.03754 cumulative IPC: 0.74546 (Simulation time: 0 hr 14 min 23 sec) 
Heartbeat CPU  0 instructions:  402000000 cycles:  449948376 heartbeat IPC: 0.82152 cumulative IPC: 0.74569 (Simulation time: 0 hr 14 min 25 sec) 
Heartbeat CPU  0 instructions:  403000001 cycles:  451879766 heartbeat IPC: 0.51776 cumulative IPC: 0.74461 (Simulation time: 0 hr 14 min 28 sec) 
Heartbeat CPU  0 instructions:  404000000 cycles:  453620990 heartbeat IPC: 0.57431 cumulative IPC: 0.74388 (Simulation time: 0 hr 14 min 30 sec) 
Heartbeat CPU  0 instructions:  405000002 cycles:  455326543 heartbeat IPC: 0.58632 cumulative IPC: 0.74323 (Simulation time: 0 hr 14 min 33 sec) 
Heartbeat CPU  0 instructions:  406000001 cycles:  456246331 heartbeat IPC: 1.08721 cumulative IPC: 0.74400 (Simulation time: 0 hr 14 min 35 sec) 
Heartbeat CPU  0 instructions:  407000002 cycles:  457318171 heartbeat IPC: 0.93298 cumulative IPC: 0.74449 (Simulation time: 0 hr 14 min 37 sec) 
Heartbeat CPU  0 instructions:  408000000 cycles:  458667565 heartbeat IPC: 0.74107 cumulative IPC: 0.74448 (Simulation time: 0 hr 14 min 39 sec) 
Heartbeat CPU  0 instructions:  409000001 cycles:  460047782 heartbeat IPC: 0.72452 cumulative IPC: 0.74441 (Simulation time: 0 hr 14 min 42 sec) 
Heartbeat CPU  0 instructions:  410000000 cycles:  464236364 heartbeat IPC: 0.23874 cumulative IPC: 0.73936 (Simulation time: 0 hr 14 min 47 sec) 
Heartbeat CPU  0 instructions:  411000000 cycles:  472328397 heartbeat IPC: 0.12358 cumulative IPC: 0.72770 (Simulation time: 0 hr 14 min 56 sec) 
Heartbeat CPU  0 instructions:  412000000 cycles:  477997790 heartbeat IPC: 0.17639 cumulative IPC: 0.72048 (Simulation time: 0 hr 15 min 2 sec) 
Heartbeat CPU  0 instructions:  413000000 cycles:  481456637 heartbeat IPC: 0.28911 cumulative IPC: 0.71706 (Simulation time: 0 hr 15 min 6 sec) 
Heartbeat CPU  0 instructions:  414000000 cycles:  485245697 heartbeat IPC: 0.26392 cumulative IPC: 0.71316 (Simulation time: 0 hr 15 min 10 sec) 
Heartbeat CPU  0 instructions:  415000000 cycles:  486320983 heartbeat IPC: 0.92999 cumulative IPC: 0.71369 (Simulation time: 0 hr 15 min 13 sec) 
Heartbeat CPU  0 instructions:  416000000 cycles:  487565623 heartbeat IPC: 0.80345 cumulative IPC: 0.71394 (Simulation time: 0 hr 15 min 15 sec) 
Heartbeat CPU  0 instructions:  417000001 cycles:  488276221 heartbeat IPC: 1.40727 cumulative IPC: 0.71505 (Simulation time: 0 hr 15 min 17 sec) 
Heartbeat CPU  0 instructions:  418000000 cycles:  489521705 heartbeat IPC: 0.80290 cumulative IPC: 0.71530 (Simulation time: 0 hr 15 min 19 sec) 
Heartbeat CPU  0 instructions:  419000000 cycles:  490792117 heartbeat IPC: 0.78715 cumulative IPC: 0.71551 (Simulation time: 0 hr 15 min 22 sec) 
Heartbeat CPU  0 instructions:  420000000 cycles:  492140626 heartbeat IPC: 0.74156 cumulative IPC: 0.71558 (Simulation time: 0 hr 15 min 24 sec) 
Heartbeat CPU  0 instructions:  421000002 cycles:  493542430 heartbeat IPC: 0.71337 cumulative IPC: 0.71558 (Simulation time: 0 hr 15 min 27 sec) 
Heartbeat CPU  0 instructions:  422000001 cycles:  494749490 heartbeat IPC: 0.82846 cumulative IPC: 0.71588 (Simulation time: 0 hr 15 min 30 sec) 
Heartbeat CPU  0 instructions:  423000000 cycles:  495749817 heartbeat IPC: 0.99967 cumulative IPC: 0.71651 (Simulation time: 0 hr 15 min 32 sec) 
Heartbeat CPU  0 instructions:  424000000 cycles:  496775309 heartbeat IPC: 0.97514 cumulative IPC: 0.71710 (Simulation time: 0 hr 15 min 34 sec) 
Heartbeat CPU  0 instructions:  425000002 cycles:  497940205 heartbeat IPC: 0.85845 cumulative IPC: 0.71746 (Simulation time: 0 hr 15 min 37 sec) 
Heartbeat CPU  0 instructions:  426000003 cycles:  498947083 heartbeat IPC: 0.99317 cumulative IPC: 0.71807 (Simulation time: 0 hr 15 min 39 sec) 
Heartbeat CPU  0 instructions:  427000000 cycles:  499922132 heartbeat IPC: 1.02559 cumulative IPC: 0.71873 (Simulation time: 0 hr 15 min 41 sec) 
Heartbeat CPU  0 instructions:  428000000 cycles:  500845507 heartbeat IPC: 1.08298 cumulative IPC: 0.71947 (Simulation time: 0 hr 15 min 44 sec) 
Heartbeat CPU  0 instructions:  429000000 cycles:  501815427 heartbeat IPC: 1.03101 cumulative IPC: 0.72013 (Simulation time: 0 hr 15 min 46 sec) 
Heartbeat CPU  0 instructions:  430000002 cycles:  502790223 heartbeat IPC: 1.02586 cumulative IPC: 0.72078 (Simulation time: 0 hr 15 min 48 sec) 
Heartbeat CPU  0 instructions:  431000000 cycles:  503799320 heartbeat IPC: 0.99098 cumulative IPC: 0.72138 (Simulation time: 0 hr 15 min 51 sec) 
Heartbeat CPU  0 instructions:  432000000 cycles:  504894904 heartbeat IPC: 0.91276 cumulative IPC: 0.72183 (Simulation time: 0 hr 15 min 53 sec) 
Heartbeat CPU  0 instructions:  433000000 cycles:  505862382 heartbeat IPC: 1.03362 cumulative IPC: 0.72249 (Simulation time: 0 hr 15 min 56 sec) 
Heartbeat CPU  0 instructions:  434000001 cycles:  506791840 heartbeat IPC: 1.07590 cumulative IPC: 0.72320 (Simulation time: 0 hr 15 min 58 sec) 
Heartbeat CPU  0 instructions:  435000001 cycles:  507780320 heartbeat IPC: 1.01165 cumulative IPC: 0.72381 (Simulation time: 0 hr 16 min 0 sec) 
Heartbeat CPU  0 instructions:  436000000 cycles:  508710840 heartbeat IPC: 1.07467 cumulative IPC: 0.72452 (Simulation time: 0 hr 16 min 3 sec) 
Heartbeat CPU  0 instructions:  437000003 cycles:  509598489 heartbeat IPC: 1.12657 cumulative IPC: 0.72528 (Simulation time: 0 hr 16 min 5 sec) 
Heartbeat CPU  0 instructions:  438000001 cycles:  510548044 heartbeat IPC: 1.05312 cumulative IPC: 0.72595 (Simulation time: 0 hr 16 min 7 sec) 
Heartbeat CPU  0 instructions:  439000000 cycles:  511394199 heartbeat IPC: 1.18182 cumulative IPC: 0.72678 (Simulation time: 0 hr 16 min 9 sec) 
Heartbeat CPU  0 instructions:  440000000 cycles:  512438608 heartbeat IPC: 0.95748 cumulative IPC: 0.72730 (Simulation time: 0 hr 16 min 12 sec) 
Heartbeat CPU  0 instructions:  441000000 cycles:  513486932 heartbeat IPC: 0.95390 cumulative IPC: 0.72780 (Simulation time: 0 hr 16 min 14 sec) 
Heartbeat CPU  0 instructions:  442000002 cycles:  514417037 heartbeat IPC: 1.07515 cumulative IPC: 0.72849 (Simulation time: 0 hr 16 min 16 sec) 
Heartbeat CPU  0 instructions:  443000002 cycles:  515417788 heartbeat IPC: 0.99925 cumulative IPC: 0.72907 (Simulation time: 0 hr 16 min 19 sec) 
Heartbeat CPU  0 instructions:  444000000 cycles:  516362049 heartbeat IPC: 1.05903 cumulative IPC: 0.72973 (Simulation time: 0 hr 16 min 21 sec) 
Heartbeat CPU  0 instructions:  445000000 cycles:  517374689 heartbeat IPC: 0.98752 cumulative IPC: 0.73028 (Simulation time: 0 hr 16 min 23 sec) 
Heartbeat CPU  0 instructions:  446000003 cycles:  518297130 heartbeat IPC: 1.08408 cumulative IPC: 0.73097 (Simulation time: 0 hr 16 min 26 sec) 
Heartbeat CPU  0 instructions:  447000000 cycles:  519174989 heartbeat IPC: 1.13913 cumulative IPC: 0.73173 (Simulation time: 0 hr 16 min 28 sec) 
Heartbeat CPU  0 instructions:  448000000 cycles:  520059757 heartbeat IPC: 1.13024 cumulative IPC: 0.73247 (Simulation time: 0 hr 16 min 30 sec) 
Heartbeat CPU  0 instructions:  449000002 cycles:  520993524 heartbeat IPC: 1.07093 cumulative IPC: 0.73313 (Simulation time: 0 hr 16 min 33 sec) 
Heartbeat CPU  0 instructions:  450000003 cycles:  521984430 heartbeat IPC: 1.00918 cumulative IPC: 0.73371 (Simulation time: 0 hr 16 min 35 sec) 
Heartbeat CPU  0 instructions:  451000000 cycles:  522919177 heartbeat IPC: 1.06981 cumulative IPC: 0.73436 (Simulation time: 0 hr 16 min 37 sec) 
Heartbeat CPU  0 instructions:  452000000 cycles:  523837885 heartbeat IPC: 1.08849 cumulative IPC: 0.73504 (Simulation time: 0 hr 16 min 39 sec) 
Heartbeat CPU  0 instructions:  453000000 cycles:  524796897 heartbeat IPC: 1.04274 cumulative IPC: 0.73566 (Simulation time: 0 hr 16 min 41 sec) 
Heartbeat CPU  0 instructions:  454000000 cycles:  525967141 heartbeat IPC: 0.85452 cumulative IPC: 0.73595 (Simulation time: 0 hr 16 min 43 sec) 
Heartbeat CPU  0 instructions:  455000000 cycles:  527239833 heartbeat IPC: 0.78574 cumulative IPC: 0.73608 (Simulation time: 0 hr 16 min 45 sec) 
Heartbeat CPU  0 instructions:  456000000 cycles:  528497622 heartbeat IPC: 0.79505 cumulative IPC: 0.73623 (Simulation time: 0 hr 16 min 47 sec) 
Heartbeat CPU  0 instructions:  457000001 cycles:  529662824 heartbeat IPC: 0.85822 cumulative IPC: 0.73652 (Simulation time: 0 hr 16 min 49 sec) 
Heartbeat CPU  0 instructions:  458000001 cycles:  530910710 heartbeat IPC: 0.80136 cumulative IPC: 0.73669 (Simulation time: 0 hr 16 min 51 sec) 
Heartbeat CPU  0 instructions:  459000000 cycles:  532140366 heartbeat IPC: 0.81323 cumulative IPC: 0.73688 (Simulation time: 0 hr 16 min 53 sec) 
Heartbeat CPU  0 instructions:  460000000 cycles:  533395843 heartbeat IPC: 0.79651 cumulative IPC: 0.73704 (Simulation time: 0 hr 16 min 55 sec) 
Heartbeat CPU  0 instructions:  461000000 cycles:  534578346 heartbeat IPC: 0.84566 cumulative IPC: 0.73730 (Simulation time: 0 hr 16 min 57 sec) 
Heartbeat CPU  0 instructions:  462000002 cycles:  535829630 heartbeat IPC: 0.79918 cumulative IPC: 0.73746 (Simulation time: 0 hr 16 min 59 sec) 
Heartbeat CPU  0 instructions:  463000000 cycles:  537092597 heartbeat IPC: 0.79178 cumulative IPC: 0.73760 (Simulation time: 0 hr 17 min 1 sec) 
Heartbeat CPU  0 instructions:  464000000 cycles:  538334549 heartbeat IPC: 0.80518 cumulative IPC: 0.73777 (Simulation time: 0 hr 17 min 3 sec) 
Heartbeat CPU  0 instructions:  465000000 cycles:  539572251 heartbeat IPC: 0.80795 cumulative IPC: 0.73794 (Simulation time: 0 hr 17 min 5 sec) 
Heartbeat CPU  0 instructions:  466000000 cycles:  540805030 heartbeat IPC: 0.81118 cumulative IPC: 0.73812 (Simulation time: 0 hr 17 min 7 sec) 
Heartbeat CPU  0 instructions:  467000000 cycles:  542042400 heartbeat IPC: 0.80817 cumulative IPC: 0.73830 (Simulation time: 0 hr 17 min 9 sec) 
Heartbeat CPU  0 instructions:  468000000 cycles:  543300666 heartbeat IPC: 0.79474 cumulative IPC: 0.73844 (Simulation time: 0 hr 17 min 12 sec) 
Heartbeat CPU  0 instructions:  469000001 cycles:  544550236 heartbeat IPC: 0.80028 cumulative IPC: 0.73860 (Simulation time: 0 hr 17 min 14 sec) 
Heartbeat CPU  0 instructions:  470000001 cycles:  545788776 heartbeat IPC: 0.80740 cumulative IPC: 0.73877 (Simulation time: 0 hr 17 min 16 sec) 
Heartbeat CPU  0 instructions:  471000000 cycles:  547034443 heartbeat IPC: 0.80278 cumulative IPC: 0.73892 (Simulation time: 0 hr 17 min 18 sec) 
Heartbeat CPU  0 instructions:  472000000 cycles:  548274368 heartbeat IPC: 0.80650 cumulative IPC: 0.73909 (Simulation time: 0 hr 17 min 20 sec) 
Heartbeat CPU  0 instructions:  473000000 cycles:  549514436 heartbeat IPC: 0.80641 cumulative IPC: 0.73926 (Simulation time: 0 hr 17 min 22 sec) 
Heartbeat CPU  0 instructions:  474000000 cycles:  550759176 heartbeat IPC: 0.80338 cumulative IPC: 0.73941 (Simulation time: 0 hr 17 min 24 sec) 
Heartbeat CPU  0 instructions:  475000000 cycles:  551996572 heartbeat IPC: 0.80815 cumulative IPC: 0.73958 (Simulation time: 0 hr 17 min 26 sec) 
Heartbeat CPU  0 instructions:  476000000 cycles:  553240264 heartbeat IPC: 0.80406 cumulative IPC: 0.73974 (Simulation time: 0 hr 17 min 28 sec) 
Heartbeat CPU  0 instructions:  477000001 cycles:  554472333 heartbeat IPC: 0.81164 cumulative IPC: 0.73991 (Simulation time: 0 hr 17 min 30 sec) 
Heartbeat CPU  0 instructions:  478000002 cycles:  555734393 heartbeat IPC: 0.79236 cumulative IPC: 0.74004 (Simulation time: 0 hr 17 min 32 sec) 
Heartbeat CPU  0 instructions:  479000000 cycles:  556753894 heartbeat IPC: 0.98087 cumulative IPC: 0.74052 (Simulation time: 0 hr 17 min 34 sec) 
Heartbeat CPU  0 instructions:  480000000 cycles:  557773109 heartbeat IPC: 0.98115 cumulative IPC: 0.74100 (Simulation time: 0 hr 17 min 36 sec) 
Heartbeat CPU  0 instructions:  481000001 cycles:  558762706 heartbeat IPC: 1.01051 cumulative IPC: 0.74152 (Simulation time: 0 hr 17 min 38 sec) 
Heartbeat CPU  0 instructions:  482000002 cycles:  559739093 heartbeat IPC: 1.02419 cumulative IPC: 0.74206 (Simulation time: 0 hr 17 min 40 sec) 
Heartbeat CPU  0 instructions:  483000001 cycles:  560738777 heartbeat IPC: 1.00032 cumulative IPC: 0.74256 (Simulation time: 0 hr 17 min 42 sec) 
Heartbeat CPU  0 instructions:  484000000 cycles:  561729406 heartbeat IPC: 1.00946 cumulative IPC: 0.74307 (Simulation time: 0 hr 17 min 45 sec) 
Heartbeat CPU  0 instructions:  485000002 cycles:  562726808 heartbeat IPC: 1.00261 cumulative IPC: 0.74357 (Simulation time: 0 hr 17 min 47 sec) 
Heartbeat CPU  0 instructions:  486000001 cycles:  564293564 heartbeat IPC: 0.63826 cumulative IPC: 0.74325 (Simulation time: 0 hr 17 min 49 sec) 
Heartbeat CPU  0 instructions:  487000000 cycles:  565632884 heartbeat IPC: 0.74665 cumulative IPC: 0.74326 (Simulation time: 0 hr 17 min 51 sec) 
Heartbeat CPU  0 instructions:  488000000 cycles:  566576400 heartbeat IPC: 1.05987 cumulative IPC: 0.74383 (Simulation time: 0 hr 17 min 53 sec) 
Heartbeat CPU  0 instructions:  489000002 cycles:  567729562 heartbeat IPC: 0.86718 cumulative IPC: 0.74410 (Simulation time: 0 hr 17 min 55 sec) 
Heartbeat CPU  0 instructions:  490000002 cycles:  569145039 heartbeat IPC: 0.70648 cumulative IPC: 0.74400 (Simulation time: 0 hr 17 min 58 sec) 
Heartbeat CPU  0 instructions:  491000001 cycles:  570564208 heartbeat IPC: 0.70464 cumulative IPC: 0.74390 (Simulation time: 0 hr 18 min 0 sec) 
Heartbeat CPU  0 instructions:  492000000 cycles:  571857524 heartbeat IPC: 0.77321 cumulative IPC: 0.74397 (Simulation time: 0 hr 18 min 2 sec) 
Heartbeat CPU  0 instructions:  493000003 cycles:  573266190 heartbeat IPC: 0.70989 cumulative IPC: 0.74388 (Simulation time: 0 hr 18 min 4 sec) 
Heartbeat CPU  0 instructions:  494000000 cycles:  574721930 heartbeat IPC: 0.68693 cumulative IPC: 0.74372 (Simulation time: 0 hr 18 min 6 sec) 
Heartbeat CPU  0 instructions:  495000001 cycles:  576128815 heartbeat IPC: 0.71079 cumulative IPC: 0.74363 (Simulation time: 0 hr 18 min 8 sec) 
Heartbeat CPU  0 instructions:  496000000 cycles:  577572606 heartbeat IPC: 0.69262 cumulative IPC: 0.74350 (Simulation time: 0 hr 18 min 9 sec) 
Heartbeat CPU  0 instructions:  497000002 cycles:  578959632 heartbeat IPC: 0.72097 cumulative IPC: 0.74344 (Simulation time: 0 hr 18 min 11 sec) 
Heartbeat CPU  0 instructions:  498000000 cycles:  580430207 heartbeat IPC: 0.68000 cumulative IPC: 0.74326 (Simulation time: 0 hr 18 min 13 sec) 
Heartbeat CPU  0 instructions:  499000000 cycles:  581923789 heartbeat IPC: 0.66953 cumulative IPC: 0.74306 (Simulation time: 0 hr 18 min 15 sec) 
Heartbeat CPU  0 instructions:  500000000 cycles:  582743590 heartbeat IPC: 1.21981 cumulative IPC: 0.74378 (Simulation time: 0 hr 18 min 17 sec) 
Heartbeat CPU  0 instructions:  501000000 cycles:  583583405 heartbeat IPC: 1.19074 cumulative IPC: 0.74448 (Simulation time: 0 hr 18 min 19 sec) 
Heartbeat CPU  0 instructions:  502000000 cycles:  584459010 heartbeat IPC: 1.14207 cumulative IPC: 0.74513 (Simulation time: 0 hr 18 min 21 sec) 
Heartbeat CPU  0 instructions:  503000002 cycles:  586186654 heartbeat IPC: 0.57882 cumulative IPC: 0.74460 (Simulation time: 0 hr 18 min 23 sec) 
Heartbeat CPU  0 instructions:  504000000 cycles:  587885439 heartbeat IPC: 0.58865 cumulative IPC: 0.74411 (Simulation time: 0 hr 18 min 26 sec) 
Heartbeat CPU  0 instructions:  505000001 cycles:  589501899 heartbeat IPC: 0.61864 cumulative IPC: 0.74374 (Simulation time: 0 hr 18 min 28 sec) 
Heartbeat CPU  0 instructions:  506000001 cycles:  591301900 heartbeat IPC: 0.55556 cumulative IPC: 0.74312 (Simulation time: 0 hr 18 min 30 sec) 
Heartbeat CPU  0 instructions:  507000003 cycles:  591985543 heartbeat IPC: 1.46275 cumulative IPC: 0.74402 (Simulation time: 0 hr 18 min 32 sec) 
Heartbeat CPU  0 instructions:  508000000 cycles:  593197957 heartbeat IPC: 0.82480 cumulative IPC: 0.74419 (Simulation time: 0 hr 18 min 34 sec) 
Heartbeat CPU  0 instructions:  509000002 cycles:  594656985 heartbeat IPC: 0.68539 cumulative IPC: 0.74404 (Simulation time: 0 hr 18 min 37 sec) 
Heartbeat CPU  0 instructions:  510000000 cycles:  596035490 heartbeat IPC: 0.72542 cumulative IPC: 0.74399 (Simulation time: 0 hr 18 min 39 sec) 
Heartbeat CPU  0 instructions:  511000000 cycles:  601579065 heartbeat IPC: 0.18039 cumulative IPC: 0.73838 (Simulation time: 0 hr 18 min 45 sec) 
Heartbeat CPU  0 instructions:  512000000 cycles:  609708778 heartbeat IPC: 0.12301 cumulative IPC: 0.72952 (Simulation time: 0 hr 18 min 54 sec) 
Heartbeat CPU  0 instructions:  513000000 cycles:  614195960 heartbeat IPC: 0.22286 cumulative IPC: 0.72553 (Simulation time: 0 hr 18 min 59 sec) 
Heartbeat CPU  0 instructions:  514000003 cycles:  617698624 heartbeat IPC: 0.28550 cumulative IPC: 0.72283 (Simulation time: 0 hr 19 min 3 sec) 
Heartbeat CPU  0 instructions:  515000000 cycles:  621098040 heartbeat IPC: 0.29417 cumulative IPC: 0.72031 (Simulation time: 0 hr 19 min 7 sec) 
Heartbeat CPU  0 instructions:  516000000 cycles:  622324305 heartbeat IPC: 0.81548 cumulative IPC: 0.72051 (Simulation time: 0 hr 19 min 9 sec) 
Heartbeat CPU  0 instructions:  517000001 cycles:  623280375 heartbeat IPC: 1.04595 cumulative IPC: 0.72105 (Simulation time: 0 hr 19 min 11 sec) 
Heartbeat CPU  0 instructions:  518000001 cycles:  624043602 heartbeat IPC: 1.31023 cumulative IPC: 0.72182 (Simulation time: 0 hr 19 min 13 sec) 
Heartbeat CPU  0 instructions:  519000002 cycles:  625367876 heartbeat IPC: 0.75513 cumulative IPC: 0.72190 (Simulation time: 0 hr 19 min 16 sec) 
Heartbeat CPU  0 instructions:  520000000 cycles:  626731299 heartbeat IPC: 0.73345 cumulative IPC: 0.72193 (Simulation time: 0 hr 19 min 18 sec) 
Heartbeat CPU  0 instructions:  521000003 cycles:  628134323 heartbeat IPC: 0.71275 cumulative IPC: 0.72190 (Simulation time: 0 hr 19 min 21 sec) 
Heartbeat CPU  0 instructions:  522000002 cycles:  629303332 heartbeat IPC: 0.85542 cumulative IPC: 0.72217 (Simulation time: 0 hr 19 min 24 sec) 
Heartbeat CPU  0 instructions:  523000001 cycles:  630361773 heartbeat IPC: 0.94478 cumulative IPC: 0.72257 (Simulation time: 0 hr 19 min 26 sec) 
Heartbeat CPU  0 instructions:  524000000 cycles:  631333214 heartbeat IPC: 1.02940 cumulative IPC: 0.72308 (Simulation time: 0 hr 19 min 28 sec) 
Heartbeat CPU  0 instructions:  525000001 cycles:  632264841 heartbeat IPC: 1.07339 cumulative IPC: 0.72364 (Simulation time: 0 hr 19 min 31 sec) 
Heartbeat CPU  0 instructions:  526000003 cycles:  633240606 heartbeat IPC: 1.02484 cumulative IPC: 0.72414 (Simulation time: 0 hr 19 min 33 sec) 
Heartbeat CPU  0 instructions:  527000000 cycles:  634208788 heartbeat IPC: 1.03286 cumulative IPC: 0.72464 (Simulation time: 0 hr 19 min 35 sec) 
Heartbeat CPU  0 instructions:  528000000 cycles:  635127449 heartbeat IPC: 1.08854 cumulative IPC: 0.72521 (Simulation time: 0 hr 19 min 38 sec) 
Heartbeat CPU  0 instructions:  529000000 cycles:  636139886 heartbeat IPC: 0.98772 cumulative IPC: 0.72566 (Simulation time: 0 hr 19 min 40 sec) 
Heartbeat CPU  0 instructions:  530000001 cycles:  637316284 heartbeat IPC: 0.85005 cumulative IPC: 0.72591 (Simulation time: 0 hr 19 min 43 sec) 
Heartbeat CPU  0 instructions:  531000001 cycles:  638278516 heartbeat IPC: 1.03925 cumulative IPC: 0.72641 (Simulation time: 0 hr 19 min 45 sec) 
Heartbeat CPU  0 instructions:  532000000 cycles:  639273883 heartbeat IPC: 1.00465 cumulative IPC: 0.72688 (Simulation time: 0 hr 19 min 48 sec) 
Heartbeat CPU  0 instructions:  533000000 cycles:  640202660 heartbeat IPC: 1.07668 cumulative IPC: 0.72743 (Simulation time: 0 hr 19 min 50 sec) 
[...]
Heartbeat CPU  0 instructions:  486000003 cycles: 3792968677 heartbeat IPC: 0.10278 cumulative IPC: 0.10329 (Simulation time: 0 hr 38 min 49 sec) 
Heartbeat CPU  0 instructions:  487000000 cycles: 3802696946 heartbeat IPC: 0.10279 cumulative IPC: 0.10329 (Simulation time: 0 hr 38 min 55 sec) 
Heartbeat CPU  0 instructions:  488000000 cycles: 3812474511 heartbeat IPC: 0.10227 cumulative IPC: 0.10329 (Simulation time: 0 hr 39 min 0 sec) 
Heartbeat CPU  0 instructions:  489000001 cycles: 3822264565 heartbeat IPC: 0.10214 cumulative IPC: 0.10328 (Simulation time: 0 hr 39 min 6 sec) 
Heartbeat CPU  0 instructions:  490000000 cycles: 3832032630 heartbeat IPC: 0.10237 cumulative IPC: 0.10328 (Simulation time: 0 hr 39 min 11 sec) 
Heartbeat CPU  0 instructions:  491000001 cycles: 3841838432 heartbeat IPC: 0.10198 cumulative IPC: 0.10328 (Simulation time: 0 hr 39 min 17 sec) 
Heartbeat CPU  0 instructions:  492000000 cycles: 3851578618 heartbeat IPC: 0.10267 cumulative IPC: 0.10328 (Simulation time: 0 hr 39 min 23 sec) 
Heartbeat CPU  0 instructions:  493000000 cycles: 3861331684 heartbeat IPC: 0.10253 cumulative IPC: 0.10327 (Simulation time: 0 hr 39 min 28 sec) 
Heartbeat CPU  0 instructions:  494000000 cycles: 3871061121 heartbeat IPC: 0.10278 cumulative IPC: 0.10327 (Simulation time: 0 hr 39 min 34 sec) 
Heartbeat CPU  0 instructions:  495000001 cycles: 3880826427 heartbeat IPC: 0.10240 cumulative IPC: 0.10327 (Simulation time: 0 hr 39 min 40 sec) 
Heartbeat CPU  0 instructions:  496000000 cycles: 3890645818 heartbeat IPC: 0.10184 cumulative IPC: 0.10327 (Simulation time: 0 hr 39 min 45 sec) 
Heartbeat CPU  0 instructions:  497000000 cycles: 3900367141 heartbeat IPC: 0.10287 cumulative IPC: 0.10327 (Simulation time: 0 hr 39 min 51 sec) 
Heartbeat CPU  0 instructions:  498000003 cycles: 3910103094 heartbeat IPC: 0.10271 cumulative IPC: 0.10326 (Simulation time: 0 hr 39 min 57 sec) 
Heartbeat CPU  0 instructions:  499000002 cycles: 3919891002 heartbeat IPC: 0.10217 cumulative IPC: 0.10326 (Simulation time: 0 hr 40 min 2 sec) 
Heartbeat CPU  0 instructions:  500000000 cycles: 3929657116 heartbeat IPC: 0.10239 cumulative IPC: 0.10326 (Simulation time: 0 hr 40 min 8 sec) 
Heartbeat CPU  0 instructions:  501000001 cycles: 3939417355 heartbeat IPC: 0.10246 cumulative IPC: 0.10326 (Simulation time: 0 hr 40 min 14 sec) 
Heartbeat CPU  0 instructions:  502000000 cycles: 3949156207 heartbeat IPC: 0.10268 cumulative IPC: 0.10326 (Simulation time: 0 hr 40 min 19 sec) 
Heartbeat CPU  0 instructions:  503000000 cycles: 3958997433 heartbeat IPC: 0.10161 cumulative IPC: 0.10325 (Simulation time: 0 hr 40 min 25 sec) 
Heartbeat CPU  0 instructions:  504000000 cycles: 3968776542 heartbeat IPC: 0.10226 cumulative IPC: 0.10325 (Simulation time: 0 hr 40 min 30 sec) 
Heartbeat CPU  0 instructions:  505000001 cycles: 3978566379 heartbeat IPC: 0.10215 cumulative IPC: 0.10325 (Simulation time: 0 hr 40 min 36 sec) 
Heartbeat CPU  0 instructions:  506000003 cycles: 3988354922 heartbeat IPC: 0.10216 cumulative IPC: 0.10324 (Simulation time: 0 hr 40 min 42 sec) 
Heartbeat CPU  0 instructions:  507000000 cycles: 3998168830 heartbeat IPC: 0.10190 cumulative IPC: 0.10324 (Simulation time: 0 hr 40 min 47 sec) 
Heartbeat CPU  0 instructions:  508000000 cycles: 4007972682 heartbeat IPC: 0.10200 cumulative IPC: 0.10324 (Simulation time: 0 hr 40 min 53 sec) 
Heartbeat CPU  0 instructions:  509000001 cycles: 4017753490 heartbeat IPC: 0.10224 cumulative IPC: 0.10323 (Simulation time: 0 hr 40 min 59 sec) 
Heartbeat CPU  0 instructions:  510000000 cycles: 4027540889 heartbeat IPC: 0.10217 cumulative IPC: 0.10323 (Simulation time: 0 hr 41 min 4 sec) 
Heartbeat CPU  0 instructions:  511000000 cycles: 4037312469 heartbeat IPC: 0.10234 cumulative IPC: 0.10323 (Simulation time: 0 hr 41 min 10 sec) 
Heartbeat CPU  0 instructions:  512000000 cycles: 4047106500 heartbeat IPC: 0.10210 cumulative IPC: 0.10323 (Simulation time: 0 hr 41 min 15 sec) 
Heartbeat CPU  0 instructions:  513000000 cycles: 4056903162 heartbeat IPC: 0.10208 cumulative IPC: 0.10322 (Simulation time: 0 hr 41 min 21 sec) 
Heartbeat CPU  0 instructions:  514000002 cycles: 4066719603 heartbeat IPC: 0.10187 cumulative IPC: 0.10322 (Simulation time: 0 hr 41 min 26 sec) 
Heartbeat CPU  0 instructions:  515000002 cycles: 4075679562 heartbeat IPC: 0.11161 cumulative IPC: 0.10324 (Simulation time: 0 hr 41 min 32 sec) 
Heartbeat CPU  0 instructions:  516000000 cycles: 4084785279 heartbeat IPC: 0.10982 cumulative IPC: 0.10325 (Simulation time: 0 hr 41 min 37 sec) 
Heartbeat CPU  0 instructions:  517000000 cycles: 4094530955 heartbeat IPC: 0.10261 cumulative IPC: 0.10325 (Simulation time: 0 hr 41 min 43 sec) 
Heartbeat CPU  0 instructions:  518000000 cycles: 4104285257 heartbeat IPC: 0.10252 cumulative IPC: 0.10325 (Simulation time: 0 hr 41 min 49 sec) 
Heartbeat CPU  0 instructions:  519000000 cycles: 4114010062 heartbeat IPC: 0.10283 cumulative IPC: 0.10325 (Simulation time: 0 hr 41 min 54 sec) 
Heartbeat CPU  0 instructions:  520000000 cycles: 4123073341 heartbeat IPC: 0.11034 cumulative IPC: 0.10327 (Simulation time: 0 hr 42 min 0 sec) 
Heartbeat CPU  0 instructions:  521000000 cycles: 4131654588 heartbeat IPC: 0.11653 cumulative IPC: 0.10329 (Simulation time: 0 hr 42 min 5 sec) 
Heartbeat CPU  0 instructions:  522000000 cycles: 4141422391 heartbeat IPC: 0.10238 cumulative IPC: 0.10329 (Simulation time: 0 hr 42 min 10 sec) 
Heartbeat CPU  0 instructions:  523000000 cycles: 4151172567 heartbeat IPC: 0.10256 cumulative IPC: 0.10329 (Simulation time: 0 hr 42 min 16 sec) 
Heartbeat CPU  0 instructions:  524000000 cycles: 4160908619 heartbeat IPC: 0.10271 cumulative IPC: 0.10329 (Simulation time: 0 hr 42 min 22 sec) 
Heartbeat CPU  0 instructions:  525000000 cycles: 4170703016 heartbeat IPC: 0.10210 cumulative IPC: 0.10329 (Simulation time: 0 hr 42 min 27 sec) 
Heartbeat CPU  0 instructions:  526000000 cycles: 4180486559 heartbeat IPC: 0.10221 cumulative IPC: 0.10328 (Simulation time: 0 hr 42 min 33 sec) 
Heartbeat CPU  0 instructions:  527000001 cycles: 4190248099 heartbeat IPC: 0.10244 cumulative IPC: 0.10328 (Simulation time: 0 hr 42 min 38 sec) 
Heartbeat CPU  0 instructions:  528000000 cycles: 4200019554 heartbeat IPC: 0.10234 cumulative IPC: 0.10328 (Simulation time: 0 hr 42 min 44 sec) 
Heartbeat CPU  0 instructions:  529000000 cycles: 4209746049 heartbeat IPC: 0.10281 cumulative IPC: 0.10328 (Simulation time: 0 hr 42 min 49 sec) 
Heartbeat CPU  0 instructions:  530000000 cycles: 4219499825 heartbeat IPC: 0.10252 cumulative IPC: 0.10328 (Simulation time: 0 hr 42 min 55 sec) 
Heartbeat CPU  0 instructions:  531000000 cycles: 4229247179 heartbeat IPC: 0.10259 cumulative IPC: 0.10327 (Simulation time: 0 hr 43 min 0 sec) 
Heartbeat CPU  0 instructions:  532000000 cycles: 4239041419 heartbeat IPC: 0.10210 cumulative IPC: 0.10327 (Simulation time: 0 hr 43 min 6 sec) 
Heartbeat CPU  0 instructions:  533000000 cycles: 4248811294 heartbeat IPC: 0.10236 cumulative IPC: 0.10327 (Simulation time: 0 hr 43 min 11 sec) 
Heartbeat CPU  0 instructions:  534000000 cycles: 4258550223 heartbeat IPC: 0.10268 cumulative IPC: 0.10327 (Simulation time: 0 hr 43 min 17 sec) 
Heartbeat CPU  0 instructions:  535000000 cycles: 4268302923 heartbeat IPC: 0.10254 cumulative IPC: 0.10327 (Simulation time: 0 hr 43 min 22 sec) 
Heartbeat CPU  0 instructions:  536000000 cycles: 4278099062 heartbeat IPC: 0.10208 cumulative IPC: 0.10326 (Simulation time: 0 hr 43 min 28 sec) 
Heartbeat CPU  0 instructions:  537000001 cycles: 4287847757 heartbeat IPC: 0.10258 cumulative IPC: 0.10326 (Simulation time: 0 hr 43 min 33 sec) 
Heartbeat CPU  0 instructions:  538000000 cycles: 4297604794 heartbeat IPC: 0.10249 cumulative IPC: 0.10326 (Simulation time: 0 hr 43 min 39 sec) 
Heartbeat CPU  0 instructions:  539000003 cycles: 4307380425 heartbeat IPC: 0.10230 cumulative IPC: 0.10326 (Simulation time: 0 hr 43 min 44 sec) 
Heartbeat CPU  0 instructions:  540000000 cycles: 4317177788 heartbeat IPC: 0.10207 cumulative IPC: 0.10326 (Simulation time: 0 hr 43 min 50 sec) 
Heartbeat CPU  0 instructions:  541000000 cycles: 4326972677 heartbeat IPC: 0.10209 cumulative IPC: 0.10325 (Simulation time: 0 hr 43 min 55 sec) 
Heartbeat CPU  0 instructions:  542000001 cycles: 4336748190 heartbeat IPC: 0.10230 cumulative IPC: 0.10325 (Simulation time: 0 hr 44 min 1 sec) 
Heartbeat CPU  0 instructions:  543000000 cycles: 4346563478 heartbeat IPC: 0.10188 cumulative IPC: 0.10325 (Simulation time: 0 hr 44 min 6 sec) 
Heartbeat CPU  0 instructions:  544000000 cycles: 4356391102 heartbeat IPC: 0.10175 cumulative IPC: 0.10324 (Simulation time: 0 hr 44 min 12 sec) 
Heartbeat CPU  0 instructions:  545000000 cycles: 4366166774 heartbeat IPC: 0.10229 cumulative IPC: 0.10324 (Simulation time: 0 hr 44 min 17 sec) 
Heartbeat CPU  0 instructions:  546000002 cycles: 4375949795 heartbeat IPC: 0.10222 cumulative IPC: 0.10324 (Simulation time: 0 hr 44 min 23 sec) 
Heartbeat CPU  0 instructions:  547000000 cycles: 4385721372 heartbeat IPC: 0.10234 cumulative IPC: 0.10324 (Simulation time: 0 hr 44 min 29 sec) 
Heartbeat CPU  0 instructions:  548000000 cycles: 4395495749 heartbeat IPC: 0.10231 cumulative IPC: 0.10324 (Simulation time: 0 hr 44 min 34 sec) 
Heartbeat CPU  0 instructions:  549000000 cycles: 4405310525 heartbeat IPC: 0.10189 cumulative IPC: 0.10323 (Simulation time: 0 hr 44 min 40 sec) 
Heartbeat CPU  0 instructions:  550000000 cycles: 4415127502 heartbeat IPC: 0.10186 cumulative IPC: 0.10323 (Simulation time: 0 hr 44 min 45 sec) 
Heartbeat CPU  0 instructions:  551000000 cycles: 4424955019 heartbeat IPC: 0.10176 cumulative IPC: 0.10323 (Simulation time: 0 hr 44 min 51 sec) 
Heartbeat CPU  0 instructions:  552000000 cycles: 4433233510 heartbeat IPC: 0.12079 cumulative IPC: 0.10326 (Simulation time: 0 hr 44 min 56 sec) 
Heartbeat CPU  0 instructions:  553000001 cycles: 4442982335 heartbeat IPC: 0.10258 cumulative IPC: 0.10326 (Simulation time: 0 hr 45 min 1 sec) 
Heartbeat CPU  0 instructions:  554000002 cycles: 4452753002 heartbeat IPC: 0.10235 cumulative IPC: 0.10326 (Simulation time: 0 hr 45 min 7 sec) 
Heartbeat CPU  0 instructions:  555000000 cycles: 4462467594 heartbeat IPC: 0.10294 cumulative IPC: 0.10326 (Simulation time: 0 hr 45 min 12 sec) 
Heartbeat CPU  0 instructions:  556000000 cycles: 4472207289 heartbeat IPC: 0.10267 cumulative IPC: 0.10325 (Simulation time: 0 hr 45 min 17 sec) 
Heartbeat CPU  0 instructions:  557000003 cycles: 4479138304 heartbeat IPC: 0.14428 cumulative IPC: 0.10332 (Simulation time: 0 hr 45 min 21 sec) 
Heartbeat CPU  0 instructions:  558000003 cycles: 4482851060 heartbeat IPC: 0.26934 cumulative IPC: 0.10346 (Simulation time: 0 hr 45 min 24 sec) 
Heartbeat CPU  0 instructions:  559000000 cycles: 4486496370 heartbeat IPC: 0.27432 cumulative IPC: 0.10360 (Simulation time: 0 hr 45 min 26 sec) 
Heartbeat CPU  0 instructions:  560000000 cycles: 4492341240 heartbeat IPC: 0.17109 cumulative IPC: 0.10369 (Simulation time: 0 hr 45 min 30 sec) 
Heartbeat CPU  0 instructions:  561000000 cycles: 4502127288 heartbeat IPC: 0.10219 cumulative IPC: 0.10368 (Simulation time: 0 hr 45 min 36 sec) 
Heartbeat CPU  0 instructions:  562000000 cycles: 4511883751 heartbeat IPC: 0.10250 cumulative IPC: 0.10368 (Simulation time: 0 hr 45 min 41 sec) 
Heartbeat CPU  0 instructions:  563000001 cycles: 4521625222 heartbeat IPC: 0.10265 cumulative IPC: 0.10368 (Simulation time: 0 hr 45 min 46 sec) 
Heartbeat CPU  0 instructions:  564000000 cycles: 4531414917 heartbeat IPC: 0.10215 cumulative IPC: 0.10368 (Simulation time: 0 hr 45 min 51 sec) 
Heartbeat CPU  0 instructions:  565000001 cycles: 4541214594 heartbeat IPC: 0.10204 cumulative IPC: 0.10367 (Simulation time: 0 hr 45 min 56 sec) 
Heartbeat CPU  0 instructions:  566000002 cycles: 4551001764 heartbeat IPC: 0.10217 cumulative IPC: 0.10367 (Simulation time: 0 hr 46 min 2 sec) 
Heartbeat CPU  0 instructions:  567000000 cycles: 4560820465 heartbeat IPC: 0.10185 cumulative IPC: 0.10366 (Simulation time: 0 hr 46 min 7 sec) 
Heartbeat CPU  0 instructions:  568000000 cycles: 4570585149 heartbeat IPC: 0.10241 cumulative IPC: 0.10366 (Simulation time: 0 hr 46 min 12 sec) 
Heartbeat CPU  0 instructions:  569000000 cycles: 4580346064 heartbeat IPC: 0.10245 cumulative IPC: 0.10366 (Simulation time: 0 hr 46 min 17 sec) 
Heartbeat CPU  0 instructions:  570000000 cycles: 4590101592 heartbeat IPC: 0.10251 cumulative IPC: 0.10366 (Simulation time: 0 hr 46 min 22 sec) 
Heartbeat CPU  0 instructions:  571000001 cycles: 4599875550 heartbeat IPC: 0.10231 cumulative IPC: 0.10365 (Simulation time: 0 hr 46 min 28 sec) 
Heartbeat CPU  0 instructions:  572000000 cycles: 4609723803 heartbeat IPC: 0.10154 cumulative IPC: 0.10365 (Simulation time: 0 hr 46 min 33 sec) 
Heartbeat CPU  0 instructions:  573000003 cycles: 4619452207 heartbeat IPC: 0.10279 cumulative IPC: 0.10365 (Simulation time: 0 hr 46 min 38 sec) 
Heartbeat CPU  0 instructions:  574000000 cycles: 4629208231 heartbeat IPC: 0.10250 cumulative IPC: 0.10365 (Simulation time: 0 hr 46 min 43 sec) 
Heartbeat CPU  0 instructions:  575000003 cycles: 4639023143 heartbeat IPC: 0.10189 cumulative IPC: 0.10364 (Simulation time: 0 hr 46 min 48 sec) 
Heartbeat CPU  0 instructions:  576000000 cycles: 4648798825 heartbeat IPC: 0.10229 cumulative IPC: 0.10364 (Simulation time: 0 hr 46 min 54 sec) 
Heartbeat CPU  0 instructions:  577000000 cycles: 4658588494 heartbeat IPC: 0.10215 cumulative IPC: 0.10364 (Simulation time: 0 hr 46 min 59 sec) 
Heartbeat CPU  0 instructions:  578000000 cycles: 4668324926 heartbeat IPC: 0.10271 cumulative IPC: 0.10363 (Simulation time: 0 hr 47 min 4 sec) 
Heartbeat CPU  0 instructions:  579000000 cycles: 4678180454 heartbeat IPC: 0.10147 cumulative IPC: 0.10363 (Simulation time: 0 hr 47 min 9 sec) 
Heartbeat CPU  0 instructions:  580000000 cycles: 4687974217 heartbeat IPC: 0.10211 cumulative IPC: 0.10363 (Simulation time: 0 hr 47 min 15 sec) 
Heartbeat CPU  0 instructions:  581000001 cycles: 4697757489 heartbeat IPC: 0.10222 cumulative IPC: 0.10362 (Simulation time: 0 hr 47 min 20 sec) 
Heartbeat CPU  0 instructions:  582000001 cycles: 4707582566 heartbeat IPC: 0.10178 cumulative IPC: 0.10362 (Simulation time: 0 hr 47 min 25 sec) 
Heartbeat CPU  0 instructions:  583000000 cycles: 4717400674 heartbeat IPC: 0.10185 cumulative IPC: 0.10361 (Simulation time: 0 hr 47 min 30 sec) 
Heartbeat CPU  0 instructions:  584000000 cycles: 4727214334 heartbeat IPC: 0.10190 cumulative IPC: 0.10361 (Simulation time: 0 hr 47 min 36 sec) 
Heartbeat CPU  0 instructions:  585000000 cycles: 4737011940 heartbeat IPC: 0.10207 cumulative IPC: 0.10361 (Simulation time: 0 hr 47 min 41 sec) 
Heartbeat CPU  0 instructions:  586000002 cycles: 4746829594 heartbeat IPC: 0.10186 cumulative IPC: 0.10360 (Simulation time: 0 hr 47 min 46 sec) 
Heartbeat CPU  0 instructions:  587000001 cycles: 4756601614 heartbeat IPC: 0.10233 cumulative IPC: 0.10360 (Simulation time: 0 hr 47 min 51 sec) 
Heartbeat CPU  0 instructions:  588000000 cycles: 4766425542 heartbeat IPC: 0.10179 cumulative IPC: 0.10360 (Simulation time: 0 hr 47 min 57 sec) 
Heartbeat CPU  0 instructions:  589000000 cycles: 4776232674 heartbeat IPC: 0.10197 cumulative IPC: 0.10359 (Simulation time: 0 hr 48 min 2 sec) 
Heartbeat CPU  0 instructions:  590000001 cycles: 4786063093 heartbeat IPC: 0.10173 cumulative IPC: 0.10359 (Simulation time: 0 hr 48 min 7 sec) 
Heartbeat CPU  0 instructions:  591000000 cycles: 4795651437 heartbeat IPC: 0.10429 cumulative IPC: 0.10359 (Simulation time: 0 hr 48 min 12 sec) 
Heartbeat CPU  0 instructions:  592000000 cycles: 4804550109 heartbeat IPC: 0.11238 cumulative IPC: 0.10361 (Simulation time: 0 hr 48 min 17 sec) 
Heartbeat CPU  0 instructions:  593000000 cycles: 4814307658 heartbeat IPC: 0.10248 cumulative IPC: 0.10361 (Simulation time: 0 hr 48 min 22 sec) 
Heartbeat CPU  0 instructions:  594000000 cycles: 4824071052 heartbeat IPC: 0.10242 cumulative IPC: 0.10360 (Simulation time: 0 hr 48 min 27 sec) 
Heartbeat CPU  0 instructions:  595000001 cycles: 4833769326 heartbeat IPC: 0.10311 cumulative IPC: 0.10360 (Simulation time: 0 hr 48 min 33 sec) 
Heartbeat CPU  0 instructions:  596000000 cycles: 4843280253 heartbeat IPC: 0.10514 cumulative IPC: 0.10361 (Simulation time: 0 hr 48 min 38 sec) 
Heartbeat CPU  0 instructions:  597000001 cycles: 4852530157 heartbeat IPC: 0.10811 cumulative IPC: 0.10361 (Simulation time: 0 hr 48 min 43 sec) 
Heartbeat CPU  0 instructions:  598000000 cycles: 4862302474 heartbeat IPC: 0.10233 cumulative IPC: 0.10361 (Simulation time: 0 hr 48 min 48 sec) 
Heartbeat CPU  0 instructions:  599000003 cycles: 4872036146 heartbeat IPC: 0.10274 cumulative IPC: 0.10361 (Simulation time: 0 hr 48 min 53 sec) 
Heartbeat CPU  0 instructions:  600000000 cycles: 4881777515 heartbeat IPC: 0.10265 cumulative IPC: 0.10361 (Simulation time: 0 hr 48 min 58 sec) 
Finished CPU 0 instructions: 500000000 cycles: 4825866140 cumulative IPC: 0.10361 (Simulation time: 0 hr 48 min 58 sec) 

ChampSim completed all CPUs

[ROI Statistics]
Core_0_instructions 500000000
Core_0_cycles 4825866140
Core_0_IPC 0.10361

Core_0_branch_prediction_accuracy 99.53911
Core_0_branch_MPKI 1.62160
Core_0_average_ROB_occupancy_at_mispredict 196.75607

Core_0_L1D_total_access 79603672
Core_0_L1D_total_hit 43625112
Core_0_L1D_total_miss 35978560
Core_0_L1D_loads 71904885
Core_0_L1D_load_hit 35946725
Core_0_L1D_load_miss 35958160
Core_0_L1D_RFOs 7698787
Core_0_L1D_RFO_hit 7678387
Core_0_L1D_RFO_miss 20400
Core_0_L1D_prefetches 0
Core_0_L1D_prefetch_hit 0
Core_0_L1D_prefetch_miss 0
Core_0_L1D_writebacks 0
Core_0_L1D_writeback_hit 0
Core_0_L1D_writeback_miss 0
Core_0_L1D_prefetch_requested 0
Core_0_L1D_prefetch_issued 0
Core_0_L1D_prefetch_useful 0
Core_0_L1D_prefetch_useless 0
Core_0_L1D_prefetch_late 0
Core_0_L1D_average_miss_latency 115.41779

Core_0_L1I_total_access 177918989
Core_0_L1I_total_hit 177918900
Core_0_L1I_total_miss 89
Core_0_L1I_loads 177918989
Core_0_L1I_load_hit 177918900
Core_0_L1I_load_miss 89
Core_0_L1I_RFOs 0
Core_0_L1I_RFO_hit 0
Core_0_L1I_RFO_miss 0
Core_0_L1I_prefetches 0
Core_0_L1I_prefetch_hit 0
Core_0_L1I_prefetch_miss 0
Core_0_L1I_writebacks 0
Core_0_L1I_writeback_hit 0
Core_0_L1I_writeback_miss 0
Core_0_L1I_prefetch_requested 0
Core_0_L1I_prefetch_issued 0
Core_0_L1I_prefetch_useful 0
Core_0_L1I_prefetch_useless 0
Core_0_L1I_prefetch_late 0
Core_0_L1I_average_miss_latency 222.24719

Core_0_L2C_total_access 36285435
Core_0_L2C_total_hit 1538249
Core_0_L2C_total_miss 34747186
Core_0_L2C_loads 35958249
Core_0_L2C_load_hit 1230422
Core_0_L2C_load_miss 34727827
Core_0_L2C_RFOs 20400
Core_0_L2C_RFO_hit 3543
Core_0_L2C_RFO_miss 16857
Core_0_L2C_prefetches 173561
Core_0_L2C_prefetch_hit 171075
Core_0_L2C_prefetch_miss 2486
Core_0_L2C_writebacks 133225
Core_0_L2C_writeback_hit 133209
Core_0_L2C_writeback_miss 16
Core_0_L2C_prefetch_requested 3971575
Core_0_L2C_prefetch_issued 218778
Core_0_L2C_prefetch_useful 2462
Core_0_L2C_prefetch_useless 30
Core_0_L2C_prefetch_late 1259
Core_0_L2C_average_miss_latency 105.00702

Core_0_LLC_total_access 34806773
Core_0_LLC_total_hit 453134
Core_0_LLC_total_miss 34353639
Core_0_LLC_loads 34726568
Core_0_LLC_load_hit 383946
Core_0_LLC_load_miss 34342622
Core_0_LLC_RFOs 16857
Core_0_LLC_RFO_hit 14351
Core_0_LLC_RFO_miss 2506
Core_0_LLC_prefetches 3745
Core_0_LLC_prefetch_hit 1434
Core_0_LLC_prefetch_miss 2311
Core_0_LLC_writebacks 59603
Core_0_LLC_writeback_hit 53403
Core_0_LLC_writeback_miss 6200
Core_0_LLC_prefetch_requested 0
Core_0_LLC_prefetch_issued 0
Core_0_LLC_prefetch_useful 13
Core_0_LLC_prefetch_useless 1292
Core_0_LLC_prefetch_late 0
Core_0_LLC_average_miss_latency 75.86169

Core_0_major_page_fault 0
Core_0_minor_page_fault 54920

Channel_0_RQ_row_buffer_hit 32716905
Channel_0_RQ_row_buffer_miss 1630534
Channel_0_WQ_row_buffer_hit 1102
Channel_0_WQ_row_buffer_miss 4479
Channel_0_WQ_full 0
Channel_0_dbus_congested 168725

avg_congested_cycle 11
