*************************************************
   ChampSim Multicore Out-of-Order Simulator
   Last compiled: Dec 15 2020 16:37:41
*************************************************

trace_0 traces/482.sphinx3-1100B.champsimtrace.xz
CPU 0 L2C next line prefetcher
Initialize SHIP state
warmup_instructions 100000000
simulation_instructions 500000000
champsim_seed 260

num_cpus 1
cpu_freq 4000
dram_io_freq 2400
page_size 4096
block_size 64
max_read_per_cycle 8
max_fill_per_cycle 1
dram_channels 1
dram_ranks 1
dram_banks 8
dram_rows 65536
dram_columns 128
dram_row_size 8
dram_size 4096
dram_pages 1048576

fetch_width 6
decode_width 6
exec_width 4
lq_width 2
sq_width 2
retire_width 4
scheduler_size 128
branch_mispredict_penalty 20
rob_size 256
lq_size 72
sq_size 56
num_instr_destinations_sparc 4
num_instr_destinations 2
num_instr_sources 4

itlb_set 16
itlb_way 8
itlb_rq_size 16
itlb_wq_size 16
itlb_pq_size 0
itlb_mshr_size 8
itlb_latency 1

dtlb_set 16
dtlb_way 4
dtlb_rq_size 16
dtlb_wq_size 16
dtlb_pq_size 0
dtlb_mshr_size 8
dtlb_latency 1

stlb_set 128
stlb_way 12
stlb_rq_size 32
stlb_wq_size 32
stlb_pq_size 0
stlb_mshr_size 16
stlb_latency 8

l1i_size 32
l1i_set 64
l1i_way 8
l1i_rq_size 64
l1i_wq_size 64
l1i_pq_size 8
l1i_mshr_size 8
l1i_latency 1

l1d_size 32
l1d_set 64
l1d_way 8
l1d_rq_size 64
l1d_wq_size 64
l1d_pq_size 8
l1d_mshr_size 16
l1d_latency 4

l2c_size 512
l2c_set 1024
l2c_way 8
l2c_rq_size 32
l2c_wq_size 32
l2c_pq_size 16
l2c_mshr_size 32
l2c_latency 10

llc_size 2048
llc_set 2048
llc_way 16
llc_rq_size 32
llc_wq_size 32
llc_pq_size 32
llc_mshr_size 64
llc_latency 20

dram_channel_width 8
dram_wq_size 64
dram_rq_size 64
tRP 15
tRCD 15
tCAS 12.5
dram_dbus_turn_around_time 30
dram_write_high_wm 56
dram_write_low_wm 48
min_dram_writes_per_switch 16
dram_mtps 2400
dram_dbus_return_time 13


Heartbeat CPU  0 instructions:    1000001 cycles:     367703 heartbeat IPC: 2.71959 cumulative IPC: 2.71959 (Simulation time: 0 hr 0 min 2 sec) 
Heartbeat CPU  0 instructions:    2000003 cycles:     795188 heartbeat IPC: 2.33927 cumulative IPC: 2.51513 (Simulation time: 0 hr 0 min 3 sec) 
Heartbeat CPU  0 instructions:    3000001 cycles:    1253028 heartbeat IPC: 2.18416 cumulative IPC: 2.39420 (Simulation time: 0 hr 0 min 5 sec) 
Heartbeat CPU  0 instructions:    4000000 cycles:    1735640 heartbeat IPC: 2.07206 cumulative IPC: 2.30463 (Simulation time: 0 hr 0 min 7 sec) 
Heartbeat CPU  0 instructions:    5000000 cycles:    2177928 heartbeat IPC: 2.26097 cumulative IPC: 2.29576 (Simulation time: 0 hr 0 min 8 sec) 
Heartbeat CPU  0 instructions:    6000001 cycles:    2545304 heartbeat IPC: 2.72201 cumulative IPC: 2.35728 (Simulation time: 0 hr 0 min 10 sec) 
Heartbeat CPU  0 instructions:    7000000 cycles:    2936347 heartbeat IPC: 2.55726 cumulative IPC: 2.38391 (Simulation time: 0 hr 0 min 12 sec) 
Heartbeat CPU  0 instructions:    8000000 cycles:    3394998 heartbeat IPC: 2.18031 cumulative IPC: 2.35641 (Simulation time: 0 hr 0 min 14 sec) 
Heartbeat CPU  0 instructions:    9000000 cycles:    3852900 heartbeat IPC: 2.18387 cumulative IPC: 2.33590 (Simulation time: 0 hr 0 min 15 sec) 
Heartbeat CPU  0 instructions:   10000000 cycles:    4342612 heartbeat IPC: 2.04202 cumulative IPC: 2.30276 (Simulation time: 0 hr 0 min 17 sec) 
Heartbeat CPU  0 instructions:   11000001 cycles:    4714873 heartbeat IPC: 2.68629 cumulative IPC: 2.33304 (Simulation time: 0 hr 0 min 19 sec) 
Heartbeat CPU  0 instructions:   12000000 cycles:    5082057 heartbeat IPC: 2.72343 cumulative IPC: 2.36125 (Simulation time: 0 hr 0 min 21 sec) 
Heartbeat CPU  0 instructions:   13000001 cycles:    5531267 heartbeat IPC: 2.22613 cumulative IPC: 2.35028 (Simulation time: 0 hr 0 min 23 sec) 
Heartbeat CPU  0 instructions:   14000000 cycles:    5989287 heartbeat IPC: 2.18331 cumulative IPC: 2.33751 (Simulation time: 0 hr 0 min 24 sec) 
Heartbeat CPU  0 instructions:   15000000 cycles:    6471472 heartbeat IPC: 2.07389 cumulative IPC: 2.31787 (Simulation time: 0 hr 0 min 26 sec) 
Heartbeat CPU  0 instructions:   16000000 cycles:    6881256 heartbeat IPC: 2.44031 cumulative IPC: 2.32516 (Simulation time: 0 hr 0 min 28 sec) 
Heartbeat CPU  0 instructions:   17000003 cycles:    7248511 heartbeat IPC: 2.72291 cumulative IPC: 2.34531 (Simulation time: 0 hr 0 min 30 sec) 
Heartbeat CPU  0 instructions:   18000003 cycles:    7660486 heartbeat IPC: 2.42733 cumulative IPC: 2.34972 (Simulation time: 0 hr 0 min 31 sec) 
Heartbeat CPU  0 instructions:   19000003 cycles:    8118567 heartbeat IPC: 2.18302 cumulative IPC: 2.34031 (Simulation time: 0 hr 0 min 33 sec) 
Heartbeat CPU  0 instructions:   20000000 cycles:    8586946 heartbeat IPC: 2.13502 cumulative IPC: 2.32912 (Simulation time: 0 hr 0 min 35 sec) 
Heartbeat CPU  0 instructions:   21000002 cycles:    9045547 heartbeat IPC: 2.18055 cumulative IPC: 2.32158 (Simulation time: 0 hr 0 min 37 sec) 
Heartbeat CPU  0 instructions:   22000003 cycles:    9412814 heartbeat IPC: 2.72282 cumulative IPC: 2.33724 (Simulation time: 0 hr 0 min 38 sec) 
Heartbeat CPU  0 instructions:   23000001 cycles:    9793379 heartbeat IPC: 2.62767 cumulative IPC: 2.34853 (Simulation time: 0 hr 0 min 40 sec) 
Heartbeat CPU  0 instructions:   24000000 cycles:   10248789 heartbeat IPC: 2.19582 cumulative IPC: 2.34174 (Simulation time: 0 hr 0 min 42 sec) 
Heartbeat CPU  0 instructions:   25000002 cycles:   10704154 heartbeat IPC: 2.19604 cumulative IPC: 2.33554 (Simulation time: 0 hr 0 min 44 sec) 
Heartbeat CPU  0 instructions:   26000002 cycles:   11182492 heartbeat IPC: 2.09057 cumulative IPC: 2.32506 (Simulation time: 0 hr 0 min 45 sec) 
Heartbeat CPU  0 instructions:   27000001 cycles:   11575590 heartbeat IPC: 2.54389 cumulative IPC: 2.33249 (Simulation time: 0 hr 0 min 47 sec) 
Heartbeat CPU  0 instructions:   28000000 cycles:   11942579 heartbeat IPC: 2.72487 cumulative IPC: 2.34455 (Simulation time: 0 hr 0 min 49 sec) 
Heartbeat CPU  0 instructions:   29000001 cycles:   12378998 heartbeat IPC: 2.29138 cumulative IPC: 2.34268 (Simulation time: 0 hr 0 min 51 sec) 
Heartbeat CPU  0 instructions:   30000003 cycles:   12832742 heartbeat IPC: 2.20389 cumulative IPC: 2.33777 (Simulation time: 0 hr 0 min 53 sec) 
Heartbeat CPU  0 instructions:   31000002 cycles:   13286764 heartbeat IPC: 2.20253 cumulative IPC: 2.33315 (Simulation time: 0 hr 0 min 54 sec) 
Heartbeat CPU  0 instructions:   32000000 cycles:   13769624 heartbeat IPC: 2.07099 cumulative IPC: 2.32396 (Simulation time: 0 hr 0 min 56 sec) 
Heartbeat CPU  0 instructions:   33000003 cycles:   14170678 heartbeat IPC: 2.49344 cumulative IPC: 2.32875 (Simulation time: 0 hr 0 min 58 sec) 
Heartbeat CPU  0 instructions:   34000003 cycles:   14537686 heartbeat IPC: 2.72474 cumulative IPC: 2.33875 (Simulation time: 0 hr 1 min 0 sec) 
Heartbeat CPU  0 instructions:   35000000 cycles:   14964801 heartbeat IPC: 2.34128 cumulative IPC: 2.33882 (Simulation time: 0 hr 1 min 1 sec) 
Heartbeat CPU  0 instructions:   36000000 cycles:   15418682 heartbeat IPC: 2.20322 cumulative IPC: 2.33483 (Simulation time: 0 hr 1 min 3 sec) 
Heartbeat CPU  0 instructions:   37000000 cycles:   15872680 heartbeat IPC: 2.20265 cumulative IPC: 2.33105 (Simulation time: 0 hr 1 min 5 sec) 
Heartbeat CPU  0 instructions:   38000003 cycles:   16360142 heartbeat IPC: 2.05145 cumulative IPC: 2.32272 (Simulation time: 0 hr 1 min 6 sec) 
Heartbeat CPU  0 instructions:   39000001 cycles:   16767419 heartbeat IPC: 2.45533 cumulative IPC: 2.32594 (Simulation time: 0 hr 1 min 8 sec) 
Heartbeat CPU  0 instructions:   40000000 cycles:   17134559 heartbeat IPC: 2.72375 cumulative IPC: 2.33446 (Simulation time: 0 hr 1 min 10 sec) 
Heartbeat CPU  0 instructions:   41000003 cycles:   17554709 heartbeat IPC: 2.38011 cumulative IPC: 2.33556 (Simulation time: 0 hr 1 min 12 sec) 
Heartbeat CPU  0 instructions:   42000000 cycles:   18012801 heartbeat IPC: 2.18296 cumulative IPC: 2.33168 (Simulation time: 0 hr 1 min 14 sec) 
Heartbeat CPU  0 instructions:   43000001 cycles:   18469123 heartbeat IPC: 2.19144 cumulative IPC: 2.32821 (Simulation time: 0 hr 1 min 15 sec) 
Heartbeat CPU  0 instructions:   44000000 cycles:   18959136 heartbeat IPC: 2.04076 cumulative IPC: 2.32078 (Simulation time: 0 hr 1 min 17 sec) 
Heartbeat CPU  0 instructions:   45000002 cycles:   19371114 heartbeat IPC: 2.42732 cumulative IPC: 2.32305 (Simulation time: 0 hr 1 min 19 sec) 
Heartbeat CPU  0 instructions:   46000000 cycles:   19738356 heartbeat IPC: 2.72299 cumulative IPC: 2.33049 (Simulation time: 0 hr 1 min 21 sec) 
Heartbeat CPU  0 instructions:   47000002 cycles:   20151541 heartbeat IPC: 2.42023 cumulative IPC: 2.33233 (Simulation time: 0 hr 1 min 22 sec) 
Heartbeat CPU  0 instructions:   48000000 cycles:   20611302 heartbeat IPC: 2.17504 cumulative IPC: 2.32882 (Simulation time: 0 hr 1 min 24 sec) 
Heartbeat CPU  0 instructions:   49000003 cycles:   21067866 heartbeat IPC: 2.19028 cumulative IPC: 2.32582 (Simulation time: 0 hr 1 min 26 sec) 
Heartbeat CPU  0 instructions:   50000003 cycles:   21578280 heartbeat IPC: 1.95919 cumulative IPC: 2.31714 (Simulation time: 0 hr 1 min 27 sec) 
Heartbeat CPU  0 instructions:   51000002 cycles:   22040148 heartbeat IPC: 2.16512 cumulative IPC: 2.31396 (Simulation time: 0 hr 1 min 29 sec) 
Heartbeat CPU  0 instructions:   52000000 cycles:   22413305 heartbeat IPC: 2.67983 cumulative IPC: 2.32005 (Simulation time: 0 hr 1 min 31 sec) 
Heartbeat CPU  0 instructions:   53000001 cycles:   22780645 heartbeat IPC: 2.72228 cumulative IPC: 2.32654 (Simulation time: 0 hr 1 min 33 sec) 
Heartbeat CPU  0 instructions:   54000001 cycles:   23230223 heartbeat IPC: 2.22431 cumulative IPC: 2.32456 (Simulation time: 0 hr 1 min 35 sec) 
Heartbeat CPU  0 instructions:   55000001 cycles:   23683848 heartbeat IPC: 2.20446 cumulative IPC: 2.32226 (Simulation time: 0 hr 1 min 36 sec) 
Heartbeat CPU  0 instructions:   56000000 cycles:   24140937 heartbeat IPC: 2.18776 cumulative IPC: 2.31971 (Simulation time: 0 hr 1 min 38 sec) 
Heartbeat CPU  0 instructions:   57000003 cycles:   24625900 heartbeat IPC: 2.06202 cumulative IPC: 2.31464 (Simulation time: 0 hr 1 min 40 sec) 
Heartbeat CPU  0 instructions:   58000001 cycles:   25019389 heartbeat IPC: 2.54136 cumulative IPC: 2.31820 (Simulation time: 0 hr 1 min 42 sec) 
Heartbeat CPU  0 instructions:   59000001 cycles:   25386501 heartbeat IPC: 2.72396 cumulative IPC: 2.32407 (Simulation time: 0 hr 1 min 43 sec) 
Heartbeat CPU  0 instructions:   60000000 cycles:   25825885 heartbeat IPC: 2.27591 cumulative IPC: 2.32325 (Simulation time: 0 hr 1 min 45 sec) 
Heartbeat CPU  0 instructions:   61000000 cycles:   26281972 heartbeat IPC: 2.19256 cumulative IPC: 2.32098 (Simulation time: 0 hr 1 min 47 sec) 
Heartbeat CPU  0 instructions:   62000000 cycles:   26739506 heartbeat IPC: 2.18563 cumulative IPC: 2.31867 (Simulation time: 0 hr 1 min 49 sec) 
Heartbeat CPU  0 instructions:   63000000 cycles:   27226644 heartbeat IPC: 2.05281 cumulative IPC: 2.31391 (Simulation time: 0 hr 1 min 50 sec) 
Heartbeat CPU  0 instructions:   64000000 cycles:   27628580 heartbeat IPC: 2.48796 cumulative IPC: 2.31644 (Simulation time: 0 hr 1 min 52 sec) 
Heartbeat CPU  0 instructions:   65000000 cycles:   27995824 heartbeat IPC: 2.72299 cumulative IPC: 2.32177 (Simulation time: 0 hr 1 min 54 sec) 
Heartbeat CPU  0 instructions:   66000001 cycles:   28421023 heartbeat IPC: 2.35184 cumulative IPC: 2.32222 (Simulation time: 0 hr 1 min 56 sec) 
Heartbeat CPU  0 instructions:   67000003 cycles:   28880890 heartbeat IPC: 2.17455 cumulative IPC: 2.31987 (Simulation time: 0 hr 1 min 58 sec) 
Heartbeat CPU  0 instructions:   68000000 cycles:   29335046 heartbeat IPC: 2.20188 cumulative IPC: 2.31805 (Simulation time: 0 hr 1 min 59 sec) 
Heartbeat CPU  0 instructions:   69000001 cycles:   29821918 heartbeat IPC: 2.05393 cumulative IPC: 2.31373 (Simulation time: 0 hr 2 min 1 sec) 
Heartbeat CPU  0 instructions:   70000001 cycles:   30230917 heartbeat IPC: 2.44499 cumulative IPC: 2.31551 (Simulation time: 0 hr 2 min 3 sec) 
Heartbeat CPU  0 instructions:   71000001 cycles:   30598251 heartbeat IPC: 2.72232 cumulative IPC: 2.32039 (Simulation time: 0 hr 2 min 5 sec) 
Heartbeat CPU  0 instructions:   72000000 cycles:   31013957 heartbeat IPC: 2.40554 cumulative IPC: 2.32154 (Simulation time: 0 hr 2 min 6 sec) 
Heartbeat CPU  0 instructions:   73000000 cycles:   31470929 heartbeat IPC: 2.18832 cumulative IPC: 2.31960 (Simulation time: 0 hr 2 min 8 sec) 
Heartbeat CPU  0 instructions:   74000002 cycles:   31926408 heartbeat IPC: 2.19550 cumulative IPC: 2.31783 (Simulation time: 0 hr 2 min 10 sec) 
Heartbeat CPU  0 instructions:   75000002 cycles:   32414771 heartbeat IPC: 2.04766 cumulative IPC: 2.31376 (Simulation time: 0 hr 2 min 11 sec) 
Heartbeat CPU  0 instructions:   76000000 cycles:   32833233 heartbeat IPC: 2.38970 cumulative IPC: 2.31473 (Simulation time: 0 hr 2 min 13 sec) 
Heartbeat CPU  0 instructions:   77000003 cycles:   33200528 heartbeat IPC: 2.72262 cumulative IPC: 2.31924 (Simulation time: 0 hr 2 min 15 sec) 
Heartbeat CPU  0 instructions:   78000002 cycles:   33608748 heartbeat IPC: 2.44966 cumulative IPC: 2.32082 (Simulation time: 0 hr 2 min 17 sec) 
Heartbeat CPU  0 instructions:   79000000 cycles:   34064172 heartbeat IPC: 2.19575 cumulative IPC: 2.31915 (Simulation time: 0 hr 2 min 18 sec) 
Heartbeat CPU  0 instructions:   80000000 cycles:   34521226 heartbeat IPC: 2.18793 cumulative IPC: 2.31741 (Simulation time: 0 hr 2 min 20 sec) 
Heartbeat CPU  0 instructions:   81000001 cycles:   34980321 heartbeat IPC: 2.17820 cumulative IPC: 2.31559 (Simulation time: 0 hr 2 min 22 sec) 
Heartbeat CPU  0 instructions:   82000001 cycles:   35466664 heartbeat IPC: 2.05616 cumulative IPC: 2.31203 (Simulation time: 0 hr 2 min 24 sec) 
Heartbeat CPU  0 instructions:   83000001 cycles:   35838213 heartbeat IPC: 2.69144 cumulative IPC: 2.31596 (Simulation time: 0 hr 2 min 25 sec) 
Heartbeat CPU  0 instructions:   84000000 cycles:   36206385 heartbeat IPC: 2.71612 cumulative IPC: 2.32003 (Simulation time: 0 hr 2 min 27 sec) 
Heartbeat CPU  0 instructions:   85000003 cycles:   36662021 heartbeat IPC: 2.19474 cumulative IPC: 2.31848 (Simulation time: 0 hr 2 min 29 sec) 
Heartbeat CPU  0 instructions:   86000001 cycles:   37117724 heartbeat IPC: 2.19441 cumulative IPC: 2.31695 (Simulation time: 0 hr 2 min 31 sec) 
Heartbeat CPU  0 instructions:   87000003 cycles:   37574948 heartbeat IPC: 2.18712 cumulative IPC: 2.31537 (Simulation time: 0 hr 2 min 32 sec) 
Heartbeat CPU  0 instructions:   88000000 cycles:   38064389 heartbeat IPC: 2.04314 cumulative IPC: 2.31187 (Simulation time: 0 hr 2 min 34 sec) 
Heartbeat CPU  0 instructions:   89000002 cycles:   38467487 heartbeat IPC: 2.48079 cumulative IPC: 2.31364 (Simulation time: 0 hr 2 min 36 sec) 
Heartbeat CPU  0 instructions:   90000002 cycles:   38834878 heartbeat IPC: 2.72190 cumulative IPC: 2.31750 (Simulation time: 0 hr 2 min 38 sec) 
Heartbeat CPU  0 instructions:   91000002 cycles:   39255845 heartbeat IPC: 2.37548 cumulative IPC: 2.31813 (Simulation time: 0 hr 2 min 40 sec) 
Heartbeat CPU  0 instructions:   92000000 cycles:   39709517 heartbeat IPC: 2.20423 cumulative IPC: 2.31682 (Simulation time: 0 hr 2 min 41 sec) 
Heartbeat CPU  0 instructions:   93000002 cycles:   40166051 heartbeat IPC: 2.19042 cumulative IPC: 2.31539 (Simulation time: 0 hr 2 min 43 sec) 
Heartbeat CPU  0 instructions:   94000001 cycles:   40654087 heartbeat IPC: 2.04903 cumulative IPC: 2.31219 (Simulation time: 0 hr 2 min 45 sec) 
Heartbeat CPU  0 instructions:   95000003 cycles:   41026583 heartbeat IPC: 2.68460 cumulative IPC: 2.31557 (Simulation time: 0 hr 2 min 46 sec) 
Heartbeat CPU  0 instructions:   96000000 cycles:   41393823 heartbeat IPC: 2.72301 cumulative IPC: 2.31919 (Simulation time: 0 hr 2 min 48 sec) 
Heartbeat CPU  0 instructions:   97000001 cycles:   41839867 heartbeat IPC: 2.24193 cumulative IPC: 2.31836 (Simulation time: 0 hr 2 min 50 sec) 
Heartbeat CPU  0 instructions:   98000002 cycles:   42296510 heartbeat IPC: 2.18990 cumulative IPC: 2.31698 (Simulation time: 0 hr 2 min 52 sec) 
Heartbeat CPU  0 instructions:   99000003 cycles:   42782560 heartbeat IPC: 2.05740 cumulative IPC: 2.31403 (Simulation time: 0 hr 2 min 53 sec) 
Heartbeat CPU  0 instructions:  100000000 cycles:   43326531 heartbeat IPC: 1.83833 cumulative IPC: 2.30805 (Simulation time: 0 hr 2 min 55 sec) 

Warmup complete CPU  0 instructions:  100000001 cycles:   43326532 (Simulation time: 0 hr 2 min 55 sec) 

Heartbeat CPU  0 instructions:  101000000 cycles:   44238338 heartbeat IPC: 1.09672 cumulative IPC: 1.09672 (Simulation time: 0 hr 2 min 58 sec) 
Heartbeat CPU  0 instructions:  102000003 cycles:   45104782 heartbeat IPC: 1.15415 cumulative IPC: 1.12470 (Simulation time: 0 hr 3 min 0 sec) 
Heartbeat CPU  0 instructions:  103000000 cycles:   46074183 heartbeat IPC: 1.03156 cumulative IPC: 1.09184 (Simulation time: 0 hr 3 min 2 sec) 
Heartbeat CPU  0 instructions:  104000000 cycles:   47151409 heartbeat IPC: 0.92831 cumulative IPC: 1.04578 (Simulation time: 0 hr 3 min 5 sec) 
Heartbeat CPU  0 instructions:  105000000 cycles:   48130884 heartbeat IPC: 1.02096 cumulative IPC: 1.04072 (Simulation time: 0 hr 3 min 7 sec) 
Heartbeat CPU  0 instructions:  106000003 cycles:   48993976 heartbeat IPC: 1.15863 cumulative IPC: 1.05868 (Simulation time: 0 hr 3 min 9 sec) 
Heartbeat CPU  0 instructions:  107000003 cycles:   49833967 heartbeat IPC: 1.19049 cumulative IPC: 1.07569 (Simulation time: 0 hr 3 min 12 sec) 
Heartbeat CPU  0 instructions:  108000000 cycles:   50889207 heartbeat IPC: 0.94765 cumulative IPC: 1.05783 (Simulation time: 0 hr 3 min 14 sec) 
Heartbeat CPU  0 instructions:  109000000 cycles:   51931313 heartbeat IPC: 0.95960 cumulative IPC: 1.04593 (Simulation time: 0 hr 3 min 16 sec) 
Heartbeat CPU  0 instructions:  110000002 cycles:   52791602 heartbeat IPC: 1.16240 cumulative IPC: 1.05652 (Simulation time: 0 hr 3 min 19 sec) 
Heartbeat CPU  0 instructions:  111000001 cycles:   53615552 heartbeat IPC: 1.21366 cumulative IPC: 1.06910 (Simulation time: 0 hr 3 min 21 sec) 
Heartbeat CPU  0 instructions:  112000000 cycles:   54579481 heartbeat IPC: 1.03742 cumulative IPC: 1.06639 (Simulation time: 0 hr 3 min 24 sec) 
Heartbeat CPU  0 instructions:  113000003 cycles:   55627413 heartbeat IPC: 0.95426 cumulative IPC: 1.05684 (Simulation time: 0 hr 3 min 26 sec) 
Heartbeat CPU  0 instructions:  114000001 cycles:   56585825 heartbeat IPC: 1.04339 cumulative IPC: 1.05586 (Simulation time: 0 hr 3 min 28 sec) 
Heartbeat CPU  0 instructions:  115000000 cycles:   57648947 heartbeat IPC: 0.94062 cumulative IPC: 1.04731 (Simulation time: 0 hr 3 min 31 sec) 
Heartbeat CPU  0 instructions:  116000000 cycles:   58492505 heartbeat IPC: 1.18545 cumulative IPC: 1.05499 (Simulation time: 0 hr 3 min 33 sec) 
Heartbeat CPU  0 instructions:  117000000 cycles:   59582759 heartbeat IPC: 0.91722 cumulative IPC: 1.04575 (Simulation time: 0 hr 3 min 35 sec) 
Heartbeat CPU  0 instructions:  118000003 cycles:   60665589 heartbeat IPC: 0.92351 cumulative IPC: 1.03812 (Simulation time: 0 hr 3 min 38 sec) 
Heartbeat CPU  0 instructions:  119000002 cycles:   61784232 heartbeat IPC: 0.89394 cumulative IPC: 1.02938 (Simulation time: 0 hr 3 min 40 sec) 
Heartbeat CPU  0 instructions:  120000000 cycles:   62977740 heartbeat IPC: 0.83786 cumulative IPC: 1.01775 (Simulation time: 0 hr 3 min 43 sec) 
Heartbeat CPU  0 instructions:  121000000 cycles:   63912100 heartbeat IPC: 1.07025 cumulative IPC: 1.02013 (Simulation time: 0 hr 3 min 45 sec) 
Heartbeat CPU  0 instructions:  122000001 cycles:   64739858 heartbeat IPC: 1.20808 cumulative IPC: 1.02740 (Simulation time: 0 hr 3 min 47 sec) 
Heartbeat CPU  0 instructions:  123000001 cycles:   65718281 heartbeat IPC: 1.02205 cumulative IPC: 1.02716 (Simulation time: 0 hr 3 min 50 sec) 
Heartbeat CPU  0 instructions:  124000000 cycles:   66848298 heartbeat IPC: 0.88494 cumulative IPC: 1.02033 (Simulation time: 0 hr 3 min 52 sec) 
Heartbeat CPU  0 instructions:  125000001 cycles:   67949767 heartbeat IPC: 0.90788 cumulative IPC: 1.01530 (Simulation time: 0 hr 3 min 54 sec) 
Heartbeat CPU  0 instructions:  126000003 cycles:   69057155 heartbeat IPC: 0.90303 cumulative IPC: 1.01047 (Simulation time: 0 hr 3 min 57 sec) 
Heartbeat CPU  0 instructions:  127000000 cycles:   70025680 heartbeat IPC: 1.03249 cumulative IPC: 1.01127 (Simulation time: 0 hr 3 min 59 sec) 
Heartbeat CPU  0 instructions:  128000000 cycles:   70896928 heartbeat IPC: 1.14778 cumulative IPC: 1.01558 (Simulation time: 0 hr 4 min 1 sec) 
Heartbeat CPU  0 instructions:  129000000 cycles:   71782559 heartbeat IPC: 1.12914 cumulative IPC: 1.01912 (Simulation time: 0 hr 4 min 4 sec) 
Heartbeat CPU  0 instructions:  130000000 cycles:   72920279 heartbeat IPC: 0.87895 cumulative IPC: 1.01373 (Simulation time: 0 hr 4 min 6 sec) 
Heartbeat CPU  0 instructions:  131000002 cycles:   74002508 heartbeat IPC: 0.92402 cumulative IPC: 1.01056 (Simulation time: 0 hr 4 min 9 sec) 
Heartbeat CPU  0 instructions:  132000000 cycles:   75105877 heartbeat IPC: 0.90631 cumulative IPC: 1.00694 (Simulation time: 0 hr 4 min 11 sec) 
Heartbeat CPU  0 instructions:  133000002 cycles:   75993042 heartbeat IPC: 1.12719 cumulative IPC: 1.01021 (Simulation time: 0 hr 4 min 13 sec) 
Heartbeat CPU  0 instructions:  134000000 cycles:   76829914 heartbeat IPC: 1.19492 cumulative IPC: 1.01482 (Simulation time: 0 hr 4 min 16 sec) 
Heartbeat CPU  0 instructions:  135000001 cycles:   77831818 heartbeat IPC: 0.99810 cumulative IPC: 1.01434 (Simulation time: 0 hr 4 min 18 sec) 
Heartbeat CPU  0 instructions:  136000000 cycles:   78913859 heartbeat IPC: 0.92418 cumulative IPC: 1.01160 (Simulation time: 0 hr 4 min 20 sec) 
Heartbeat CPU  0 instructions:  137000002 cycles:   79957533 heartbeat IPC: 0.95816 cumulative IPC: 1.01007 (Simulation time: 0 hr 4 min 23 sec) 
Heartbeat CPU  0 instructions:  138000002 cycles:   80833621 heartbeat IPC: 1.14144 cumulative IPC: 1.01314 (Simulation time: 0 hr 4 min 25 sec) 
Heartbeat CPU  0 instructions:  139000002 cycles:   81670494 heartbeat IPC: 1.19492 cumulative IPC: 1.01711 (Simulation time: 0 hr 4 min 27 sec) 
Heartbeat CPU  0 instructions:  140000000 cycles:   82689412 heartbeat IPC: 0.98143 cumulative IPC: 1.01619 (Simulation time: 0 hr 4 min 30 sec) 
Heartbeat CPU  0 instructions:  141000000 cycles:   83753647 heartbeat IPC: 0.93964 cumulative IPC: 1.01417 (Simulation time: 0 hr 4 min 32 sec) 
Heartbeat CPU  0 instructions:  142000001 cycles:   84750014 heartbeat IPC: 1.00365 cumulative IPC: 1.01392 (Simulation time: 0 hr 4 min 34 sec) 
Heartbeat CPU  0 instructions:  143000003 cycles:   85606275 heartbeat IPC: 1.16787 cumulative IPC: 1.01704 (Simulation time: 0 hr 4 min 37 sec) 
Heartbeat CPU  0 instructions:  144000000 cycles:   86451892 heartbeat IPC: 1.18256 cumulative IPC: 1.02028 (Simulation time: 0 hr 4 min 39 sec) 
Heartbeat CPU  0 instructions:  145000002 cycles:   87523628 heartbeat IPC: 0.93307 cumulative IPC: 1.01817 (Simulation time: 0 hr 4 min 42 sec) 
Heartbeat CPU  0 instructions:  146000002 cycles:   88589187 heartbeat IPC: 0.93847 cumulative IPC: 1.01629 (Simulation time: 0 hr 4 min 44 sec) 
Heartbeat CPU  0 instructions:  147000002 cycles:   89481985 heartbeat IPC: 1.12007 cumulative IPC: 1.01830 (Simulation time: 0 hr 4 min 46 sec) 
Heartbeat CPU  0 instructions:  148000000 cycles:   90322271 heartbeat IPC: 1.19007 cumulative IPC: 1.02137 (Simulation time: 0 hr 4 min 49 sec) 
Heartbeat CPU  0 instructions:  149000000 cycles:   91251051 heartbeat IPC: 1.07668 cumulative IPC: 1.02244 (Simulation time: 0 hr 4 min 51 sec) 
Heartbeat CPU  0 instructions:  150000003 cycles:   92331129 heartbeat IPC: 0.92586 cumulative IPC: 1.02031 (Simulation time: 0 hr 4 min 53 sec) 
Heartbeat CPU  0 instructions:  151000002 cycles:   93417983 heartbeat IPC: 0.92009 cumulative IPC: 1.01814 (Simulation time: 0 hr 4 min 56 sec) 
Heartbeat CPU  0 instructions:  152000000 cycles:   94315092 heartbeat IPC: 1.11469 cumulative IPC: 1.01984 (Simulation time: 0 hr 4 min 58 sec) 
Heartbeat CPU  0 instructions:  153000001 cycles:   95186098 heartbeat IPC: 1.14810 cumulative IPC: 1.02199 (Simulation time: 0 hr 5 min 0 sec) 
Heartbeat CPU  0 instructions:  154000003 cycles:   96017425 heartbeat IPC: 1.20290 cumulative IPC: 1.02485 (Simulation time: 0 hr 5 min 3 sec) 
Heartbeat CPU  0 instructions:  155000003 cycles:   97014711 heartbeat IPC: 1.00272 cumulative IPC: 1.02443 (Simulation time: 0 hr 5 min 5 sec) 
Heartbeat CPU  0 instructions:  156000000 cycles:   98071451 heartbeat IPC: 0.94630 cumulative IPC: 1.02293 (Simulation time: 0 hr 5 min 7 sec) 
Heartbeat CPU  0 instructions:  157000003 cycles:   99032654 heartbeat IPC: 1.04037 cumulative IPC: 1.02323 (Simulation time: 0 hr 5 min 10 sec) 
Heartbeat CPU  0 instructions:  158000002 cycles:   99886004 heartbeat IPC: 1.17185 cumulative IPC: 1.02547 (Simulation time: 0 hr 5 min 12 sec) 
Heartbeat CPU  0 instructions:  159000001 cycles:  100740448 heartbeat IPC: 1.17035 cumulative IPC: 1.02763 (Simulation time: 0 hr 5 min 14 sec) 
Heartbeat CPU  0 instructions:  160000000 cycles:  101834525 heartbeat IPC: 0.91401 cumulative IPC: 1.02550 (Simulation time: 0 hr 5 min 17 sec) 
Heartbeat CPU  0 instructions:  161000000 cycles:  102880669 heartbeat IPC: 0.95589 cumulative IPC: 1.02428 (Simulation time: 0 hr 5 min 19 sec) 
Heartbeat CPU  0 instructions:  162000003 cycles:  103732603 heartbeat IPC: 1.17380 cumulative IPC: 1.02639 (Simulation time: 0 hr 5 min 21 sec) 
Heartbeat CPU  0 instructions:  163000003 cycles:  104563182 heartbeat IPC: 1.20398 cumulative IPC: 1.02880 (Simulation time: 0 hr 5 min 24 sec) 
Heartbeat CPU  0 instructions:  164000000 cycles:  105548310 heartbeat IPC: 1.01509 cumulative IPC: 1.02858 (Simulation time: 0 hr 5 min 26 sec) 
Heartbeat CPU  0 instructions:  165000000 cycles:  106605502 heartbeat IPC: 0.94590 cumulative IPC: 1.02720 (Simulation time: 0 hr 5 min 28 sec) 
Heartbeat CPU  0 instructions:  166000002 cycles:  107562995 heartbeat IPC: 1.04440 cumulative IPC: 1.02745 (Simulation time: 0 hr 5 min 31 sec) 
Heartbeat CPU  0 instructions:  167000001 cycles:  108410417 heartbeat IPC: 1.18005 cumulative IPC: 1.02944 (Simulation time: 0 hr 5 min 33 sec) 
Heartbeat CPU  0 instructions:  168000000 cycles:  109261083 heartbeat IPC: 1.17555 cumulative IPC: 1.03133 (Simulation time: 0 hr 5 min 35 sec) 
Heartbeat CPU  0 instructions:  169000000 cycles:  110351484 heartbeat IPC: 0.91709 cumulative IPC: 1.02947 (Simulation time: 0 hr 5 min 38 sec) 
Heartbeat CPU  0 instructions:  170000002 cycles:  111401742 heartbeat IPC: 0.95215 cumulative IPC: 1.02827 (Simulation time: 0 hr 5 min 40 sec) 
Heartbeat CPU  0 instructions:  171000003 cycles:  112256736 heartbeat IPC: 1.16960 cumulative IPC: 1.03003 (Simulation time: 0 hr 5 min 42 sec) 
Heartbeat CPU  0 instructions:  172000000 cycles:  113085035 heartbeat IPC: 1.20729 cumulative IPC: 1.03213 (Simulation time: 0 hr 5 min 45 sec) 
Heartbeat CPU  0 instructions:  173000000 cycles:  114073416 heartbeat IPC: 1.01176 cumulative IPC: 1.03185 (Simulation time: 0 hr 5 min 47 sec) 
Heartbeat CPU  0 instructions:  174000000 cycles:  115136271 heartbeat IPC: 0.94086 cumulative IPC: 1.03050 (Simulation time: 0 hr 5 min 49 sec) 
Heartbeat CPU  0 instructions:  175000002 cycles:  116100126 heartbeat IPC: 1.03750 cumulative IPC: 1.03059 (Simulation time: 0 hr 5 min 52 sec) 
Heartbeat CPU  0 instructions:  176000000 cycles:  116947031 heartbeat IPC: 1.18077 cumulative IPC: 1.03232 (Simulation time: 0 hr 5 min 54 sec) 
Heartbeat CPU  0 instructions:  177000003 cycles:  117794016 heartbeat IPC: 1.18066 cumulative IPC: 1.03401 (Simulation time: 0 hr 5 min 56 sec) 
Heartbeat CPU  0 instructions:  178000003 cycles:  118876322 heartbeat IPC: 0.92395 cumulative IPC: 1.03243 (Simulation time: 0 hr 5 min 59 sec) 
Heartbeat CPU  0 instructions:  179000003 cycles:  119932128 heartbeat IPC: 0.94714 cumulative IPC: 1.03126 (Simulation time: 0 hr 6 min 1 sec) 
Heartbeat CPU  0 instructions:  180000000 cycles:  120780687 heartbeat IPC: 1.17846 cumulative IPC: 1.03287 (Simulation time: 0 hr 6 min 3 sec) 
Heartbeat CPU  0 instructions:  181000002 cycles:  121609558 heartbeat IPC: 1.20646 cumulative IPC: 1.03471 (Simulation time: 0 hr 6 min 6 sec) 
Heartbeat CPU  0 instructions:  182000002 cycles:  122594991 heartbeat IPC: 1.01478 cumulative IPC: 1.03446 (Simulation time: 0 hr 6 min 8 sec) 
Heartbeat CPU  0 instructions:  183000002 cycles:  123638761 heartbeat IPC: 0.95807 cumulative IPC: 1.03347 (Simulation time: 0 hr 6 min 11 sec) 
Heartbeat CPU  0 instructions:  184000000 cycles:  124609065 heartbeat IPC: 1.03060 cumulative IPC: 1.03343 (Simulation time: 0 hr 6 min 13 sec) 
Heartbeat CPU  0 instructions:  185000003 cycles:  125453263 heartbeat IPC: 1.18456 cumulative IPC: 1.03499 (Simulation time: 0 hr 6 min 15 sec) 
Heartbeat CPU  0 instructions:  186000001 cycles:  126305254 heartbeat IPC: 1.17372 cumulative IPC: 1.03641 (Simulation time: 0 hr 6 min 18 sec) 
Heartbeat CPU  0 instructions:  187000002 cycles:  127392293 heartbeat IPC: 0.91993 cumulative IPC: 1.03490 (Simulation time: 0 hr 6 min 20 sec) 
Heartbeat CPU  0 instructions:  188000000 cycles:  128446005 heartbeat IPC: 0.94902 cumulative IPC: 1.03384 (Simulation time: 0 hr 6 min 22 sec) 
Heartbeat CPU  0 instructions:  189000001 cycles:  129306565 heartbeat IPC: 1.16204 cumulative IPC: 1.03512 (Simulation time: 0 hr 6 min 25 sec) 
Heartbeat CPU  0 instructions:  190000001 cycles:  130139071 heartbeat IPC: 1.20119 cumulative IPC: 1.03672 (Simulation time: 0 hr 6 min 27 sec) 
Heartbeat CPU  0 instructions:  191000003 cycles:  131122376 heartbeat IPC: 1.01698 cumulative IPC: 1.03650 (Simulation time: 0 hr 6 min 29 sec) 
Heartbeat CPU  0 instructions:  192000000 cycles:  132170626 heartbeat IPC: 0.95397 cumulative IPC: 1.03552 (Simulation time: 0 hr 6 min 32 sec) 
Heartbeat CPU  0 instructions:  193000002 cycles:  133150489 heartbeat IPC: 1.02055 cumulative IPC: 1.03536 (Simulation time: 0 hr 6 min 34 sec) 
Heartbeat CPU  0 instructions:  194000002 cycles:  133994913 heartbeat IPC: 1.18424 cumulative IPC: 1.03675 (Simulation time: 0 hr 6 min 36 sec) 
Heartbeat CPU  0 instructions:  195000003 cycles:  134845637 heartbeat IPC: 1.17547 cumulative IPC: 1.03803 (Simulation time: 0 hr 6 min 39 sec) 
Heartbeat CPU  0 instructions:  196000000 cycles:  135926020 heartbeat IPC: 0.92559 cumulative IPC: 1.03672 (Simulation time: 0 hr 6 min 41 sec) 
Heartbeat CPU  0 instructions:  197000002 cycles:  136995115 heartbeat IPC: 0.93537 cumulative IPC: 1.03557 (Simulation time: 0 hr 6 min 43 sec) 
Heartbeat CPU  0 instructions:  198000002 cycles:  137843273 heartbeat IPC: 1.17903 cumulative IPC: 1.03685 (Simulation time: 0 hr 6 min 46 sec) 
Heartbeat CPU  0 instructions:  199000001 cycles:  138667700 heartbeat IPC: 1.21296 cumulative IPC: 1.03838 (Simulation time: 0 hr 6 min 48 sec) 
Heartbeat CPU  0 instructions:  200000000 cycles:  139646588 heartbeat IPC: 1.02157 cumulative IPC: 1.03821 (Simulation time: 0 hr 6 min 50 sec) 
Heartbeat CPU  0 instructions:  201000003 cycles:  140687085 heartbeat IPC: 0.96108 cumulative IPC: 1.03738 (Simulation time: 0 hr 6 min 53 sec) 
Heartbeat CPU  0 instructions:  202000001 cycles:  141668641 heartbeat IPC: 1.01879 cumulative IPC: 1.03720 (Simulation time: 0 hr 6 min 55 sec) 
Heartbeat CPU  0 instructions:  203000001 cycles:  142516324 heartbeat IPC: 1.17969 cumulative IPC: 1.03841 (Simulation time: 0 hr 6 min 57 sec) 
Heartbeat CPU  0 instructions:  204000000 cycles:  143361595 heartbeat IPC: 1.18305 cumulative IPC: 1.03964 (Simulation time: 0 hr 7 min 0 sec) 
Heartbeat CPU  0 instructions:  205000002 cycles:  144430925 heartbeat IPC: 0.93517 cumulative IPC: 1.03853 (Simulation time: 0 hr 7 min 2 sec) 
Heartbeat CPU  0 instructions:  206000001 cycles:  145495789 heartbeat IPC: 0.93909 cumulative IPC: 1.03749 (Simulation time: 0 hr 7 min 4 sec) 
Heartbeat CPU  0 instructions:  207000001 cycles:  146350100 heartbeat IPC: 1.17053 cumulative IPC: 1.03860 (Simulation time: 0 hr 7 min 7 sec) 
Heartbeat CPU  0 instructions:  208000000 cycles:  147172025 heartbeat IPC: 1.21665 cumulative IPC: 1.04001 (Simulation time: 0 hr 7 min 9 sec) 
Heartbeat CPU  0 instructions:  209000001 cycles:  148149093 heartbeat IPC: 1.02347 cumulative IPC: 1.03985 (Simulation time: 0 hr 7 min 12 sec) 
Heartbeat CPU  0 instructions:  210000000 cycles:  149190856 heartbeat IPC: 0.95991 cumulative IPC: 1.03907 (Simulation time: 0 hr 7 min 14 sec) 
Heartbeat CPU  0 instructions:  211000003 cycles:  150245313 heartbeat IPC: 0.94836 cumulative IPC: 1.03817 (Simulation time: 0 hr 7 min 16 sec) 
Heartbeat CPU  0 instructions:  212000000 cycles:  151101383 heartbeat IPC: 1.16813 cumulative IPC: 1.03920 (Simulation time: 0 hr 7 min 19 sec) 
Heartbeat CPU  0 instructions:  213000002 cycles:  151963389 heartbeat IPC: 1.16009 cumulative IPC: 1.04016 (Simulation time: 0 hr 7 min 21 sec) 
Heartbeat CPU  0 instructions:  214000000 cycles:  152811826 heartbeat IPC: 1.17864 cumulative IPC: 1.04124 (Simulation time: 0 hr 7 min 23 sec) 
Heartbeat CPU  0 instructions:  215000002 cycles:  153886248 heartbeat IPC: 0.93073 cumulative IPC: 1.04016 (Simulation time: 0 hr 7 min 26 sec) 
Heartbeat CPU  0 instructions:  216000000 cycles:  154950209 heartbeat IPC: 0.93988 cumulative IPC: 1.03921 (Simulation time: 0 hr 7 min 28 sec) 
Heartbeat CPU  0 instructions:  217000001 cycles:  155802590 heartbeat IPC: 1.17319 cumulative IPC: 1.04022 (Simulation time: 0 hr 7 min 30 sec) 
Heartbeat CPU  0 instructions:  218000000 cycles:  156625508 heartbeat IPC: 1.21519 cumulative IPC: 1.04149 (Simulation time: 0 hr 7 min 33 sec) 
Heartbeat CPU  0 instructions:  219000000 cycles:  157607495 heartbeat IPC: 1.01834 cumulative IPC: 1.04129 (Simulation time: 0 hr 7 min 35 sec) 
Heartbeat CPU  0 instructions:  220000000 cycles:  158647817 heartbeat IPC: 0.96124 cumulative IPC: 1.04057 (Simulation time: 0 hr 7 min 37 sec) 
Heartbeat CPU  0 instructions:  221000001 cycles:  159628233 heartbeat IPC: 1.01998 cumulative IPC: 1.04040 (Simulation time: 0 hr 7 min 40 sec) 
Heartbeat CPU  0 instructions:  222000003 cycles:  160473215 heartbeat IPC: 1.18346 cumulative IPC: 1.04143 (Simulation time: 0 hr 7 min 42 sec) 
Heartbeat CPU  0 instructions:  223000000 cycles:  161328314 heartbeat IPC: 1.16945 cumulative IPC: 1.04236 (Simulation time: 0 hr 7 min 44 sec) 
Heartbeat CPU  0 instructions:  224000000 cycles:  162408017 heartbeat IPC: 0.92618 cumulative IPC: 1.04130 (Simulation time: 0 hr 7 min 47 sec) 
Heartbeat CPU  0 instructions:  225000001 cycles:  163465718 heartbeat IPC: 0.94545 cumulative IPC: 1.04046 (Simulation time: 0 hr 7 min 49 sec) 
Heartbeat CPU  0 instructions:  226000002 cycles:  164315106 heartbeat IPC: 1.17732 cumulative IPC: 1.04142 (Simulation time: 0 hr 7 min 51 sec) 
Heartbeat CPU  0 instructions:  227000001 cycles:  165142832 heartbeat IPC: 1.20813 cumulative IPC: 1.04255 (Simulation time: 0 hr 7 min 54 sec) 
Heartbeat CPU  0 instructions:  228000000 cycles:  166120897 heartbeat IPC: 1.02243 cumulative IPC: 1.04239 (Simulation time: 0 hr 7 min 56 sec) 
Heartbeat CPU  0 instructions:  229000003 cycles:  167168341 heartbeat IPC: 0.95471 cumulative IPC: 1.04165 (Simulation time: 0 hr 7 min 59 sec) 
Heartbeat CPU  0 instructions:  230000001 cycles:  168144293 heartbeat IPC: 1.02464 cumulative IPC: 1.04152 (Simulation time: 0 hr 8 min 1 sec) 
Heartbeat CPU  0 instructions:  231000002 cycles:  168988839 heartbeat IPC: 1.18407 cumulative IPC: 1.04248 (Simulation time: 0 hr 8 min 3 sec) 
Heartbeat CPU  0 instructions:  232000000 cycles:  169843691 heartbeat IPC: 1.16979 cumulative IPC: 1.04334 (Simulation time: 0 hr 8 min 6 sec) 
Heartbeat CPU  0 instructions:  233000002 cycles:  170914840 heartbeat IPC: 0.93358 cumulative IPC: 1.04242 (Simulation time: 0 hr 8 min 8 sec) 
Heartbeat CPU  0 instructions:  234000002 cycles:  171978542 heartbeat IPC: 0.94011 cumulative IPC: 1.04157 (Simulation time: 0 hr 8 min 10 sec) 
Heartbeat CPU  0 instructions:  235000000 cycles:  172820096 heartbeat IPC: 1.18828 cumulative IPC: 1.04252 (Simulation time: 0 hr 8 min 13 sec) 
Heartbeat CPU  0 instructions:  236000000 cycles:  173645462 heartbeat IPC: 1.21158 cumulative IPC: 1.04359 (Simulation time: 0 hr 8 min 15 sec) 
Heartbeat CPU  0 instructions:  237000003 cycles:  174625584 heartbeat IPC: 1.02028 cumulative IPC: 1.04342 (Simulation time: 0 hr 8 min 17 sec) 
Heartbeat CPU  0 instructions:  238000000 cycles:  175667082 heartbeat IPC: 0.96015 cumulative IPC: 1.04276 (Simulation time: 0 hr 8 min 20 sec) 
Heartbeat CPU  0 instructions:  239000000 cycles:  176636758 heartbeat IPC: 1.03127 cumulative IPC: 1.04268 (Simulation time: 0 hr 8 min 22 sec) 
Heartbeat CPU  0 instructions:  240000000 cycles:  177483504 heartbeat IPC: 1.18099 cumulative IPC: 1.04355 (Simulation time: 0 hr 8 min 24 sec) 
Heartbeat CPU  0 instructions:  241000000 cycles:  178332263 heartbeat IPC: 1.17819 cumulative IPC: 1.04440 (Simulation time: 0 hr 8 min 27 sec) 
Heartbeat CPU  0 instructions:  242000002 cycles:  179399597 heartbeat IPC: 0.93692 cumulative IPC: 1.04356 (Simulation time: 0 hr 8 min 29 sec) 
Heartbeat CPU  0 instructions:  243000001 cycles:  180456703 heartbeat IPC: 0.94598 cumulative IPC: 1.04280 (Simulation time: 0 hr 8 min 32 sec) 
Heartbeat CPU  0 instructions:  244000000 cycles:  181306416 heartbeat IPC: 1.17687 cumulative IPC: 1.04363 (Simulation time: 0 hr 8 min 34 sec) 
Heartbeat CPU  0 instructions:  245000001 cycles:  182129009 heartbeat IPC: 1.21567 cumulative IPC: 1.04465 (Simulation time: 0 hr 8 min 36 sec) 
Heartbeat CPU  0 instructions:  246000000 cycles:  183109476 heartbeat IPC: 1.01992 cumulative IPC: 1.04448 (Simulation time: 0 hr 8 min 39 sec) 
Heartbeat CPU  0 instructions:  247000001 cycles:  184144948 heartbeat IPC: 0.96574 cumulative IPC: 1.04390 (Simulation time: 0 hr 8 min 41 sec) 
Heartbeat CPU  0 instructions:  248000000 cycles:  185126053 heartbeat IPC: 1.01926 cumulative IPC: 1.04373 (Simulation time: 0 hr 8 min 43 sec) 
Heartbeat CPU  0 instructions:  249000000 cycles:  185974135 heartbeat IPC: 1.17913 cumulative IPC: 1.04453 (Simulation time: 0 hr 8 min 46 sec) 
Heartbeat CPU  0 instructions:  250000003 cycles:  186822061 heartbeat IPC: 1.17935 cumulative IPC: 1.04533 (Simulation time: 0 hr 8 min 48 sec) 
Heartbeat CPU  0 instructions:  251000002 cycles:  187900552 heartbeat IPC: 0.92722 cumulative IPC: 1.04445 (Simulation time: 0 hr 8 min 50 sec) 
Heartbeat CPU  0 instructions:  252000000 cycles:  188961279 heartbeat IPC: 0.94275 cumulative IPC: 1.04371 (Simulation time: 0 hr 8 min 53 sec) 
Heartbeat CPU  0 instructions:  253000002 cycles:  189817055 heartbeat IPC: 1.16853 cumulative IPC: 1.04444 (Simulation time: 0 hr 8 min 55 sec) 
Heartbeat CPU  0 instructions:  254000003 cycles:  190648030 heartbeat IPC: 1.20341 cumulative IPC: 1.04533 (Simulation time: 0 hr 8 min 58 sec) 
Heartbeat CPU  0 instructions:  255000003 cycles:  191627032 heartbeat IPC: 1.02145 cumulative IPC: 1.04518 (Simulation time: 0 hr 9 min 0 sec) 
Heartbeat CPU  0 instructions:  256000000 cycles:  192678505 heartbeat IPC: 0.95104 cumulative IPC: 1.04451 (Simulation time: 0 hr 9 min 2 sec) 
Heartbeat CPU  0 instructions:  257000001 cycles:  193647322 heartbeat IPC: 1.03219 cumulative IPC: 1.04443 (Simulation time: 0 hr 9 min 5 sec) 
Heartbeat CPU  0 instructions:  258000000 cycles:  194488926 heartbeat IPC: 1.18821 cumulative IPC: 1.04523 (Simulation time: 0 hr 9 min 7 sec) 
Heartbeat CPU  0 instructions:  259000000 cycles:  195343000 heartbeat IPC: 1.17086 cumulative IPC: 1.04594 (Simulation time: 0 hr 9 min 9 sec) 
Heartbeat CPU  0 instructions:  260000000 cycles:  196431007 heartbeat IPC: 0.91911 cumulative IPC: 1.04504 (Simulation time: 0 hr 9 min 12 sec) 
Heartbeat CPU  0 instructions:  261000003 cycles:  197474788 heartbeat IPC: 0.95806 cumulative IPC: 1.04445 (Simulation time: 0 hr 9 min 14 sec) 
Heartbeat CPU  0 instructions:  262000001 cycles:  198327570 heartbeat IPC: 1.17263 cumulative IPC: 1.04515 (Simulation time: 0 hr 9 min 16 sec) 
Heartbeat CPU  0 instructions:  263000000 cycles:  199156918 heartbeat IPC: 1.20577 cumulative IPC: 1.04601 (Simulation time: 0 hr 9 min 19 sec) 
Heartbeat CPU  0 instructions:  264000000 cycles:  200157146 heartbeat IPC: 0.99977 cumulative IPC: 1.04571 (Simulation time: 0 hr 9 min 21 sec) 
Heartbeat CPU  0 instructions:  265000000 cycles:  201250819 heartbeat IPC: 0.91435 cumulative IPC: 1.04480 (Simulation time: 0 hr 9 min 23 sec) 
Heartbeat CPU  0 instructions:  266000000 cycles:  202258460 heartbeat IPC: 0.99242 cumulative IPC: 1.04447 (Simulation time: 0 hr 9 min 26 sec) 
Heartbeat CPU  0 instructions:  267000002 cycles:  203093658 heartbeat IPC: 1.19732 cumulative IPC: 1.04527 (Simulation time: 0 hr 9 min 28 sec) 
Heartbeat CPU  0 instructions:  268000000 cycles:  203949307 heartbeat IPC: 1.16870 cumulative IPC: 1.04593 (Simulation time: 0 hr 9 min 30 sec) 
Heartbeat CPU  0 instructions:  269000002 cycles:  204806278 heartbeat IPC: 1.16690 cumulative IPC: 1.04657 (Simulation time: 0 hr 9 min 33 sec) 
Heartbeat CPU  0 instructions:  270000003 cycles:  206101725 heartbeat IPC: 0.77194 cumulative IPC: 1.04439 (Simulation time: 0 hr 9 min 35 sec) 
Heartbeat CPU  0 instructions:  271000001 cycles:  207009621 heartbeat IPC: 1.10145 cumulative IPC: 1.04470 (Simulation time: 0 hr 9 min 38 sec) 
Heartbeat CPU  0 instructions:  272000000 cycles:  207855783 heartbeat IPC: 1.18181 cumulative IPC: 1.04541 (Simulation time: 0 hr 9 min 40 sec) 
Heartbeat CPU  0 instructions:  273000001 cycles:  208765411 heartbeat IPC: 1.09935 cumulative IPC: 1.04570 (Simulation time: 0 hr 9 min 42 sec) 
Heartbeat CPU  0 instructions:  274000000 cycles:  210072930 heartbeat IPC: 0.76481 cumulative IPC: 1.04350 (Simulation time: 0 hr 9 min 45 sec) 
Heartbeat CPU  0 instructions:  275000003 cycles:  210920650 heartbeat IPC: 1.17964 cumulative IPC: 1.04419 (Simulation time: 0 hr 9 min 47 sec) 
Heartbeat CPU  0 instructions:  276000000 cycles:  211745490 heartbeat IPC: 1.21235 cumulative IPC: 1.04501 (Simulation time: 0 hr 9 min 50 sec) 
Heartbeat CPU  0 instructions:  277000001 cycles:  212784317 heartbeat IPC: 0.96263 cumulative IPC: 1.04451 (Simulation time: 0 hr 9 min 52 sec) 
Heartbeat CPU  0 instructions:  278000002 cycles:  213987620 heartbeat IPC: 0.83105 cumulative IPC: 1.04300 (Simulation time: 0 hr 9 min 54 sec) 
Heartbeat CPU  0 instructions:  279000003 cycles:  214824014 heartbeat IPC: 1.19561 cumulative IPC: 1.04375 (Simulation time: 0 hr 9 min 57 sec) 
Heartbeat CPU  0 instructions:  280000000 cycles:  215653107 heartbeat IPC: 1.20613 cumulative IPC: 1.04453 (Simulation time: 0 hr 9 min 59 sec) 
Heartbeat CPU  0 instructions:  281000003 cycles:  216713876 heartbeat IPC: 0.94272 cumulative IPC: 1.04391 (Simulation time: 0 hr 10 min 1 sec) 
Heartbeat CPU  0 instructions:  282000001 cycles:  217892747 heartbeat IPC: 0.84827 cumulative IPC: 1.04258 (Simulation time: 0 hr 10 min 4 sec) 
Heartbeat CPU  0 instructions:  283000000 cycles:  218743654 heartbeat IPC: 1.17522 cumulative IPC: 1.04323 (Simulation time: 0 hr 10 min 6 sec) 
Heartbeat CPU  0 instructions:  284000000 cycles:  219578223 heartbeat IPC: 1.19822 cumulative IPC: 1.04396 (Simulation time: 0 hr 10 min 9 sec) 
Heartbeat CPU  0 instructions:  285000002 cycles:  220742319 heartbeat IPC: 0.85904 cumulative IPC: 1.04275 (Simulation time: 0 hr 10 min 11 sec) 
Heartbeat CPU  0 instructions:  286000002 cycles:  222092198 heartbeat IPC: 0.74081 cumulative IPC: 1.04047 (Simulation time: 0 hr 10 min 13 sec) 
Heartbeat CPU  0 instructions:  287000003 cycles:  223038692 heartbeat IPC: 1.05653 cumulative IPC: 1.04055 (Simulation time: 0 hr 10 min 16 sec) 
Heartbeat CPU  0 instructions:  288000000 cycles:  223872715 heartbeat IPC: 1.19900 cumulative IPC: 1.04128 (Simulation time: 0 hr 10 min 18 sec) 
Heartbeat CPU  0 instructions:  289000001 cycles:  224865181 heartbeat IPC: 1.00759 cumulative IPC: 1.04110 (Simulation time: 0 hr 10 min 21 sec) 
Heartbeat CPU  0 instructions:  290000001 cycles:  226131226 heartbeat IPC: 0.78986 cumulative IPC: 1.03936 (Simulation time: 0 hr 10 min 23 sec) 
Heartbeat CPU  0 instructions:  291000003 cycles:  227426627 heartbeat IPC: 0.77196 cumulative IPC: 1.03748 (Simulation time: 0 hr 10 min 25 sec) 
Heartbeat CPU  0 instructions:  292000000 cycles:  228548148 heartbeat IPC: 0.89164 cumulative IPC: 1.03660 (Simulation time: 0 hr 10 min 28 sec) 
Heartbeat CPU  0 instructions:  293000001 cycles:  229424283 heartbeat IPC: 1.14138 cumulative IPC: 1.03709 (Simulation time: 0 hr 10 min 30 sec) 
Heartbeat CPU  0 instructions:  294000002 cycles:  230275896 heartbeat IPC: 1.17424 cumulative IPC: 1.03771 (Simulation time: 0 hr 10 min 32 sec) 
Heartbeat CPU  0 instructions:  295000003 cycles:  231404212 heartbeat IPC: 0.88628 cumulative IPC: 1.03681 (Simulation time: 0 hr 10 min 35 sec) 
Heartbeat CPU  0 instructions:  296000000 cycles:  232526477 heartbeat IPC: 0.89105 cumulative IPC: 1.03594 (Simulation time: 0 hr 10 min 37 sec) 
Heartbeat CPU  0 instructions:  297000002 cycles:  233635945 heartbeat IPC: 0.90133 cumulative IPC: 1.03516 (Simulation time: 0 hr 10 min 40 sec) 
Heartbeat CPU  0 instructions:  298000003 cycles:  234785953 heartbeat IPC: 0.86956 cumulative IPC: 1.03416 (Simulation time: 0 hr 10 min 42 sec) 
Heartbeat CPU  0 instructions:  299000000 cycles:  235791567 heartbeat IPC: 0.99441 cumulative IPC: 1.03395 (Simulation time: 0 hr 10 min 44 sec) 
Heartbeat CPU  0 instructions:  300000000 cycles:  236636921 heartbeat IPC: 1.18294 cumulative IPC: 1.03461 (Simulation time: 0 hr 10 min 47 sec) 
Heartbeat CPU  0 instructions:  301000000 cycles:  237687653 heartbeat IPC: 0.95172 cumulative IPC: 1.03416 (Simulation time: 0 hr 10 min 49 sec) 
Heartbeat CPU  0 instructions:  302000001 cycles:  238804357 heartbeat IPC: 0.89549 cumulative IPC: 1.03337 (Simulation time: 0 hr 10 min 51 sec) 
Heartbeat CPU  0 instructions:  303000003 cycles:  239912743 heartbeat IPC: 0.90221 cumulative IPC: 1.03263 (Simulation time: 0 hr 10 min 54 sec) 
Heartbeat CPU  0 instructions:  304000000 cycles:  241053261 heartbeat IPC: 0.87679 cumulative IPC: 1.03173 (Simulation time: 0 hr 10 min 56 sec) 
Heartbeat CPU  0 instructions:  305000000 cycles:  242286192 heartbeat IPC: 0.81108 cumulative IPC: 1.03036 (Simulation time: 0 hr 10 min 59 sec) 
Heartbeat CPU  0 instructions:  306000002 cycles:  243257807 heartbeat IPC: 1.02922 cumulative IPC: 1.03035 (Simulation time: 0 hr 11 min 1 sec) 
Heartbeat CPU  0 instructions:  307000001 cycles:  244087702 heartbeat IPC: 1.20497 cumulative IPC: 1.03108 (Simulation time: 0 hr 11 min 3 sec) 
Heartbeat CPU  0 instructions:  308000000 cycles:  245104623 heartbeat IPC: 0.98336 cumulative IPC: 1.03084 (Simulation time: 0 hr 11 min 6 sec) 
Heartbeat CPU  0 instructions:  309000002 cycles:  246238975 heartbeat IPC: 0.88156 cumulative IPC: 1.03000 (Simulation time: 0 hr 11 min 8 sec) 
Heartbeat CPU  0 instructions:  310000002 cycles:  247323748 heartbeat IPC: 0.92185 cumulative IPC: 1.02943 (Simulation time: 0 hr 11 min 10 sec) 
Heartbeat CPU  0 instructions:  311000002 cycles:  248474561 heartbeat IPC: 0.86895 cumulative IPC: 1.02853 (Simulation time: 0 hr 11 min 13 sec) 
Heartbeat CPU  0 instructions:  312000000 cycles:  249678154 heartbeat IPC: 0.83084 cumulative IPC: 1.02737 (Simulation time: 0 hr 11 min 15 sec) 
Heartbeat CPU  0 instructions:  313000003 cycles:  250592291 heartbeat IPC: 1.09393 cumulative IPC: 1.02767 (Simulation time: 0 hr 11 min 18 sec) 
Heartbeat CPU  0 instructions:  314000002 cycles:  251426844 heartbeat IPC: 1.19825 cumulative IPC: 1.02835 (Simulation time: 0 hr 11 min 20 sec) 
Heartbeat CPU  0 instructions:  315000003 cycles:  252469448 heartbeat IPC: 0.95914 cumulative IPC: 1.02801 (Simulation time: 0 hr 11 min 22 sec) 
Heartbeat CPU  0 instructions:  316000000 cycles:  253610685 heartbeat IPC: 0.87624 cumulative IPC: 1.02718 (Simulation time: 0 hr 11 min 25 sec) 
Heartbeat CPU  0 instructions:  317000002 cycles:  254847163 heartbeat IPC: 0.80875 cumulative IPC: 1.02590 (Simulation time: 0 hr 11 min 27 sec) 
Heartbeat CPU  0 instructions:  318000001 cycles:  256017218 heartbeat IPC: 0.85466 cumulative IPC: 1.02496 (Simulation time: 0 hr 11 min 30 sec) 
Heartbeat CPU  0 instructions:  319000002 cycles:  256959515 heartbeat IPC: 1.06124 cumulative IPC: 1.02512 (Simulation time: 0 hr 11 min 32 sec) 
Heartbeat CPU  0 instructions:  320000000 cycles:  257798459 heartbeat IPC: 1.19197 cumulative IPC: 1.02578 (Simulation time: 0 hr 11 min 34 sec) 
Heartbeat CPU  0 instructions:  321000000 cycles:  258865732 heartbeat IPC: 0.93697 cumulative IPC: 1.02534 (Simulation time: 0 hr 11 min 37 sec) 
Heartbeat CPU  0 instructions:  322000001 cycles:  260056141 heartbeat IPC: 0.84005 cumulative IPC: 1.02432 (Simulation time: 0 hr 11 min 39 sec) 
Heartbeat CPU  0 instructions:  323000000 cycles:  261299314 heartbeat IPC: 0.80439 cumulative IPC: 1.02306 (Simulation time: 0 hr 11 min 42 sec) 
Heartbeat CPU  0 instructions:  324000000 cycles:  262611458 heartbeat IPC: 0.76211 cumulative IPC: 1.02150 (Simulation time: 0 hr 11 min 44 sec) 
Heartbeat CPU  0 instructions:  325000000 cycles:  263531278 heartbeat IPC: 1.08717 cumulative IPC: 1.02178 (Simulation time: 0 hr 11 min 46 sec) 
Heartbeat CPU  0 instructions:  326000000 cycles:  264381610 heartbeat IPC: 1.17601 cumulative IPC: 1.02237 (Simulation time: 0 hr 11 min 49 sec) 
Heartbeat CPU  0 instructions:  327000001 cycles:  265364622 heartbeat IPC: 1.01728 cumulative IPC: 1.02235 (Simulation time: 0 hr 11 min 51 sec) 
Heartbeat CPU  0 instructions:  328000000 cycles:  266569024 heartbeat IPC: 0.83029 cumulative IPC: 1.02131 (Simulation time: 0 hr 11 min 54 sec) 
Heartbeat CPU  0 instructions:  329000000 cycles:  267773976 heartbeat IPC: 0.82991 cumulative IPC: 1.02028 (Simulation time: 0 hr 11 min 56 sec) 
Heartbeat CPU  0 instructions:  330000000 cycles:  269028683 heartbeat IPC: 0.79700 cumulative IPC: 1.01904 (Simulation time: 0 hr 11 min 58 sec) 
Heartbeat CPU  0 instructions:  331000003 cycles:  269926329 heartbeat IPC: 1.11403 cumulative IPC: 1.01942 (Simulation time: 0 hr 12 min 1 sec) 
Heartbeat CPU  0 instructions:  332000000 cycles:  270756453 heartbeat IPC: 1.20464 cumulative IPC: 1.02009 (Simulation time: 0 hr 12 min 3 sec) 
Heartbeat CPU  0 instructions:  333000000 cycles:  271767630 heartbeat IPC: 0.98895 cumulative IPC: 1.01996 (Simulation time: 0 hr 12 min 6 sec) 
Heartbeat CPU  0 instructions:  334000002 cycles:  273013188 heartbeat IPC: 0.80285 cumulative IPC: 1.01878 (Simulation time: 0 hr 12 min 8 sec) 
Heartbeat CPU  0 instructions:  335000002 cycles:  274280061 heartbeat IPC: 0.78935 cumulative IPC: 1.01752 (Simulation time: 0 hr 12 min 10 sec) 
Heartbeat CPU  0 instructions:  336000000 cycles:  275436272 heartbeat IPC: 0.86489 cumulative IPC: 1.01676 (Simulation time: 0 hr 12 min 13 sec) 
Heartbeat CPU  0 instructions:  337000003 cycles:  276281131 heartbeat IPC: 1.18363 cumulative IPC: 1.01737 (Simulation time: 0 hr 12 min 15 sec) 
Heartbeat CPU  0 instructions:  338000000 cycles:  277166062 heartbeat IPC: 1.13003 cumulative IPC: 1.01779 (Simulation time: 0 hr 12 min 17 sec) 
Heartbeat CPU  0 instructions:  339000002 cycles:  278010488 heartbeat IPC: 1.18424 cumulative IPC: 1.01839 (Simulation time: 0 hr 12 min 20 sec) 
Heartbeat CPU  0 instructions:  340000000 cycles:  279219432 heartbeat IPC: 0.82717 cumulative IPC: 1.01741 (Simulation time: 0 hr 12 min 22 sec) 
Heartbeat CPU  0 instructions:  341000000 cycles:  280492113 heartbeat IPC: 0.78574 cumulative IPC: 1.01617 (Simulation time: 0 hr 12 min 25 sec) 
Heartbeat CPU  0 instructions:  342000001 cycles:  281602074 heartbeat IPC: 0.90093 cumulative IPC: 1.01563 (Simulation time: 0 hr 12 min 27 sec) 
Heartbeat CPU  0 instructions:  343000001 cycles:  282478159 heartbeat IPC: 1.14144 cumulative IPC: 1.01609 (Simulation time: 0 hr 12 min 29 sec) 
Heartbeat CPU  0 instructions:  344000000 cycles:  283317884 heartbeat IPC: 1.19086 cumulative IPC: 1.01670 (Simulation time: 0 hr 12 min 32 sec) 
Heartbeat CPU  0 instructions:  345000002 cycles:  284454483 heartbeat IPC: 0.87982 cumulative IPC: 1.01606 (Simulation time: 0 hr 12 min 34 sec) 
Heartbeat CPU  0 instructions:  346000000 cycles:  285691335 heartbeat IPC: 0.80850 cumulative IPC: 1.01500 (Simulation time: 0 hr 12 min 37 sec) 
Heartbeat CPU  0 instructions:  347000000 cycles:  286917632 heartbeat IPC: 0.81546 cumulative IPC: 1.01399 (Simulation time: 0 hr 12 min 39 sec) 
Heartbeat CPU  0 instructions:  348000000 cycles:  287760163 heartbeat IPC: 1.18690 cumulative IPC: 1.01459 (Simulation time: 0 hr 12 min 41 sec) 
Heartbeat CPU  0 instructions:  349000003 cycles:  288593410 heartbeat IPC: 1.20013 cumulative IPC: 1.01522 (Simulation time: 0 hr 12 min 44 sec) 
Heartbeat CPU  0 instructions:  350000000 cycles:  289633698 heartbeat IPC: 0.96127 cumulative IPC: 1.01499 (Simulation time: 0 hr 12 min 46 sec) 
Heartbeat CPU  0 instructions:  351000000 cycles:  290847281 heartbeat IPC: 0.82401 cumulative IPC: 1.01406 (Simulation time: 0 hr 12 min 49 sec) 
Heartbeat CPU  0 instructions:  352000000 cycles:  292012868 heartbeat IPC: 0.85794 cumulative IPC: 1.01332 (Simulation time: 0 hr 12 min 51 sec) 
Heartbeat CPU  0 instructions:  353000001 cycles:  292863566 heartbeat IPC: 1.17551 cumulative IPC: 1.01388 (Simulation time: 0 hr 12 min 53 sec) 
Heartbeat CPU  0 instructions:  354000002 cycles:  293695982 heartbeat IPC: 1.20132 cumulative IPC: 1.01450 (Simulation time: 0 hr 12 min 56 sec) 
Heartbeat CPU  0 instructions:  355000002 cycles:  294750067 heartbeat IPC: 0.94869 cumulative IPC: 1.01422 (Simulation time: 0 hr 12 min 58 sec) 
Heartbeat CPU  0 instructions:  356000000 cycles:  295937271 heartbeat IPC: 0.84231 cumulative IPC: 1.01342 (Simulation time: 0 hr 13 min 0 sec) 
Heartbeat CPU  0 instructions:  357000000 cycles:  297097234 heartbeat IPC: 0.86210 cumulative IPC: 1.01273 (Simulation time: 0 hr 13 min 3 sec) 
Heartbeat CPU  0 instructions:  358000002 cycles:  297984863 heartbeat IPC: 1.12660 cumulative IPC: 1.01312 (Simulation time: 0 hr 13 min 5 sec) 
Heartbeat CPU  0 instructions:  359000002 cycles:  298824455 heartbeat IPC: 1.19105 cumulative IPC: 1.01371 (Simulation time: 0 hr 13 min 7 sec) 
Heartbeat CPU  0 instructions:  360000000 cycles:  299842122 heartbeat IPC: 0.98264 cumulative IPC: 1.01358 (Simulation time: 0 hr 13 min 10 sec) 
Heartbeat CPU  0 instructions:  361000002 cycles:  300994792 heartbeat IPC: 0.86755 cumulative IPC: 1.01293 (Simulation time: 0 hr 13 min 12 sec) 
Heartbeat CPU  0 instructions:  362000001 cycles:  302142634 heartbeat IPC: 0.87120 cumulative IPC: 1.01230 (Simulation time: 0 hr 13 min 15 sec) 
Heartbeat CPU  0 instructions:  363000002 cycles:  303193069 heartbeat IPC: 0.95199 cumulative IPC: 1.01206 (Simulation time: 0 hr 13 min 17 sec) 
Heartbeat CPU  0 instructions:  364000000 cycles:  304083053 heartbeat IPC: 1.12361 cumulative IPC: 1.01244 (Simulation time: 0 hr 13 min 19 sec) 
Heartbeat CPU  0 instructions:  365000002 cycles:  304921540 heartbeat IPC: 1.19263 cumulative IPC: 1.01302 (Simulation time: 0 hr 13 min 22 sec) 
Heartbeat CPU  0 instructions:  366000000 cycles:  306099200 heartbeat IPC: 0.84914 cumulative IPC: 1.01228 (Simulation time: 0 hr 13 min 24 sec) 
Heartbeat CPU  0 instructions:  367000000 cycles:  307367892 heartbeat IPC: 0.78821 cumulative IPC: 1.01121 (Simulation time: 0 hr 13 min 26 sec) 
Heartbeat CPU  0 instructions:  368000000 cycles:  308529422 heartbeat IPC: 0.86093 cumulative IPC: 1.01055 (Simulation time: 0 hr 13 min 29 sec) 
Heartbeat CPU  0 instructions:  369000001 cycles:  309422354 heartbeat IPC: 1.11991 cumulative IPC: 1.01091 (Simulation time: 0 hr 13 min 31 sec) 
Heartbeat CPU  0 instructions:  370000002 cycles:  310267850 heartbeat IPC: 1.18274 cumulative IPC: 1.01146 (Simulation time: 0 hr 13 min 33 sec) 
Heartbeat CPU  0 instructions:  371000000 cycles:  311459756 heartbeat IPC: 0.83899 cumulative IPC: 1.01069 (Simulation time: 0 hr 13 min 36 sec) 
Heartbeat CPU  0 instructions:  372000000 cycles:  312855017 heartbeat IPC: 0.71671 cumulative IPC: 1.00917 (Simulation time: 0 hr 13 min 38 sec) 
Heartbeat CPU  0 instructions:  373000001 cycles:  313887518 heartbeat IPC: 0.96852 cumulative IPC: 1.00901 (Simulation time: 0 hr 13 min 41 sec) 
Heartbeat CPU  0 instructions:  374000002 cycles:  314753148 heartbeat IPC: 1.15523 cumulative IPC: 1.00948 (Simulation time: 0 hr 13 min 43 sec) 
Heartbeat CPU  0 instructions:  375000000 cycles:  315607775 heartbeat IPC: 1.17010 cumulative IPC: 1.00999 (Simulation time: 0 hr 13 min 45 sec) 
Heartbeat CPU  0 instructions:  376000000 cycles:  316988690 heartbeat IPC: 0.72416 cumulative IPC: 1.00854 (Simulation time: 0 hr 13 min 48 sec) 
Heartbeat CPU  0 instructions:  377000001 cycles:  318315728 heartbeat IPC: 0.75356 cumulative IPC: 1.00731 (Simulation time: 0 hr 13 min 50 sec) 
Heartbeat CPU  0 instructions:  378000002 cycles:  319190561 heartbeat IPC: 1.14308 cumulative IPC: 1.00774 (Simulation time: 0 hr 13 min 53 sec) 
Heartbeat CPU  0 instructions:  379000001 cycles:  320014570 heartbeat IPC: 1.21358 cumulative IPC: 1.00836 (Simulation time: 0 hr 13 min 55 sec) 
Heartbeat CPU  0 instructions:  380000000 cycles:  321086330 heartbeat IPC: 0.93304 cumulative IPC: 1.00807 (Simulation time: 0 hr 13 min 57 sec) 
Heartbeat CPU  0 instructions:  381000001 cycles:  322409170 heartbeat IPC: 0.75595 cumulative IPC: 1.00687 (Simulation time: 0 hr 14 min 0 sec) 
Heartbeat CPU  0 instructions:  382000003 cycles:  323566406 heartbeat IPC: 0.86413 cumulative IPC: 1.00628 (Simulation time: 0 hr 14 min 2 sec) 
Heartbeat CPU  0 instructions:  383000003 cycles:  324459137 heartbeat IPC: 1.12016 cumulative IPC: 1.00664 (Simulation time: 0 hr 14 min 5 sec) 
Heartbeat CPU  0 instructions:  384000000 cycles:  325297310 heartbeat IPC: 1.19307 cumulative IPC: 1.00720 (Simulation time: 0 hr 14 min 7 sec) 
Heartbeat CPU  0 instructions:  385000000 cycles:  326549830 heartbeat IPC: 0.79839 cumulative IPC: 1.00627 (Simulation time: 0 hr 14 min 9 sec) 
Heartbeat CPU  0 instructions:  386000000 cycles:  327979544 heartbeat IPC: 0.69944 cumulative IPC: 1.00473 (Simulation time: 0 hr 14 min 12 sec) 
Heartbeat CPU  0 instructions:  387000000 cycles:  329062149 heartbeat IPC: 0.92370 cumulative IPC: 1.00443 (Simulation time: 0 hr 14 min 14 sec) 
Heartbeat CPU  0 instructions:  388000000 cycles:  329936535 heartbeat IPC: 1.14366 cumulative IPC: 1.00485 (Simulation time: 0 hr 14 min 17 sec) 
Heartbeat CPU  0 instructions:  389000000 cycles:  330787755 heartbeat IPC: 1.17478 cumulative IPC: 1.00535 (Simulation time: 0 hr 14 min 19 sec) 
Heartbeat CPU  0 instructions:  390000003 cycles:  332184599 heartbeat IPC: 0.71590 cumulative IPC: 1.00395 (Simulation time: 0 hr 14 min 21 sec) 
Heartbeat CPU  0 instructions:  391000003 cycles:  333583140 heartbeat IPC: 0.71503 cumulative IPC: 1.00256 (Simulation time: 0 hr 14 min 24 sec) 
Heartbeat CPU  0 instructions:  392000000 cycles:  334514408 heartbeat IPC: 1.07380 cumulative IPC: 1.00279 (Simulation time: 0 hr 14 min 26 sec) 
Heartbeat CPU  0 instructions:  393000001 cycles:  335348164 heartbeat IPC: 1.19939 cumulative IPC: 1.00335 (Simulation time: 0 hr 14 min 29 sec) 
Heartbeat CPU  0 instructions:  394000002 cycles:  336384767 heartbeat IPC: 0.96469 cumulative IPC: 1.00321 (Simulation time: 0 hr 14 min 31 sec) 
Heartbeat CPU  0 instructions:  395000002 cycles:  337756807 heartbeat IPC: 0.72884 cumulative IPC: 1.00194 (Simulation time: 0 hr 14 min 33 sec) 
Heartbeat CPU  0 instructions:  396000000 cycles:  339107902 heartbeat IPC: 0.74014 cumulative IPC: 1.00074 (Simulation time: 0 hr 14 min 36 sec) 
Heartbeat CPU  0 instructions:  397000000 cycles:  340020275 heartbeat IPC: 1.09604 cumulative IPC: 1.00103 (Simulation time: 0 hr 14 min 38 sec) 
Heartbeat CPU  0 instructions:  398000001 cycles:  340880000 heartbeat IPC: 1.16316 cumulative IPC: 1.00150 (Simulation time: 0 hr 14 min 40 sec) 
Heartbeat CPU  0 instructions:  399000000 cycles:  341704548 heartbeat IPC: 1.21278 cumulative IPC: 1.00208 (Simulation time: 0 hr 14 min 43 sec) 
Heartbeat CPU  0 instructions:  400000000 cycles:  342756155 heartbeat IPC: 0.95093 cumulative IPC: 1.00190 (Simulation time: 0 hr 14 min 45 sec) 
Heartbeat CPU  0 instructions:  401000002 cycles:  344046489 heartbeat IPC: 0.77499 cumulative IPC: 1.00093 (Simulation time: 0 hr 14 min 48 sec) 
Heartbeat CPU  0 instructions:  402000002 cycles:  345261207 heartbeat IPC: 0.82324 cumulative IPC: 1.00022 (Simulation time: 0 hr 14 min 50 sec) 
Heartbeat CPU  0 instructions:  403000002 cycles:  346268734 heartbeat IPC: 0.99253 cumulative IPC: 1.00019 (Simulation time: 0 hr 14 min 52 sec) 
Heartbeat CPU  0 instructions:  404000000 cycles:  347125376 heartbeat IPC: 1.16735 cumulative IPC: 1.00066 (Simulation time: 0 hr 14 min 55 sec) 
Heartbeat CPU  0 instructions:  405000001 cycles:  348013116 heartbeat IPC: 1.12646 cumulative IPC: 1.00103 (Simulation time: 0 hr 14 min 57 sec) 
Heartbeat CPU  0 instructions:  406000003 cycles:  349359505 heartbeat IPC: 0.74273 cumulative IPC: 0.99989 (Simulation time: 0 hr 15 min 0 sec) 
Heartbeat CPU  0 instructions:  407000000 cycles:  350604442 heartbeat IPC: 0.80325 cumulative IPC: 0.99910 (Simulation time: 0 hr 15 min 2 sec) 
Heartbeat CPU  0 instructions:  408000000 cycles:  351658774 heartbeat IPC: 0.94847 cumulative IPC: 0.99892 (Simulation time: 0 hr 15 min 4 sec) 
Heartbeat CPU  0 instructions:  409000001 cycles:  352548431 heartbeat IPC: 1.12403 cumulative IPC: 0.99928 (Simulation time: 0 hr 15 min 7 sec) 
Heartbeat CPU  0 instructions:  410000002 cycles:  353391130 heartbeat IPC: 1.18666 cumulative IPC: 0.99979 (Simulation time: 0 hr 15 min 9 sec) 
Heartbeat CPU  0 instructions:  411000001 cycles:  354650696 heartbeat IPC: 0.79392 cumulative IPC: 0.99896 (Simulation time: 0 hr 15 min 11 sec) 
Heartbeat CPU  0 instructions:  412000000 cycles:  355987130 heartbeat IPC: 0.74826 cumulative IPC: 0.99789 (Simulation time: 0 hr 15 min 14 sec) 
Heartbeat CPU  0 instructions:  413000001 cycles:  357087323 heartbeat IPC: 0.90893 cumulative IPC: 0.99758 (Simulation time: 0 hr 15 min 16 sec) 
Heartbeat CPU  0 instructions:  414000001 cycles:  357987674 heartbeat IPC: 1.11068 cumulative IPC: 0.99790 (Simulation time: 0 hr 15 min 18 sec) 
Heartbeat CPU  0 instructions:  415000000 cycles:  358829650 heartbeat IPC: 1.18768 cumulative IPC: 0.99841 (Simulation time: 0 hr 15 min 21 sec) 
Heartbeat CPU  0 instructions:  416000000 cycles:  360009678 heartbeat IPC: 0.84744 cumulative IPC: 0.99784 (Simulation time: 0 hr 15 min 23 sec) 
Heartbeat CPU  0 instructions:  417000003 cycles:  361278292 heartbeat IPC: 0.78826 cumulative IPC: 0.99701 (Simulation time: 0 hr 15 min 26 sec) 
Heartbeat CPU  0 instructions:  418000001 cycles:  362560828 heartbeat IPC: 0.77970 cumulative IPC: 0.99613 (Simulation time: 0 hr 15 min 28 sec) 
Heartbeat CPU  0 instructions:  419000000 cycles:  363645654 heartbeat IPC: 0.92181 cumulative IPC: 0.99588 (Simulation time: 0 hr 15 min 30 sec) 
Heartbeat CPU  0 instructions:  420000000 cycles:  364546639 heartbeat IPC: 1.10990 cumulative IPC: 0.99620 (Simulation time: 0 hr 15 min 33 sec) 
Heartbeat CPU  0 instructions:  421000001 cycles:  365390788 heartbeat IPC: 1.18463 cumulative IPC: 0.99670 (Simulation time: 0 hr 15 min 35 sec) 
Heartbeat CPU  0 instructions:  422000000 cycles:  366529235 heartbeat IPC: 0.87839 cumulative IPC: 0.99628 (Simulation time: 0 hr 15 min 38 sec) 
Heartbeat CPU  0 instructions:  423000000 cycles:  367668888 heartbeat IPC: 0.87746 cumulative IPC: 0.99586 (Simulation time: 0 hr 15 min 40 sec) 
Heartbeat CPU  0 instructions:  424000000 cycles:  368803568 heartbeat IPC: 0.88131 cumulative IPC: 0.99546 (Simulation time: 0 hr 15 min 42 sec) 
Heartbeat CPU  0 instructions:  425000001 cycles:  369973689 heartbeat IPC: 0.85461 cumulative IPC: 0.99496 (Simulation time: 0 hr 15 min 45 sec) 
Heartbeat CPU  0 instructions:  426000000 cycles:  370905302 heartbeat IPC: 1.07341 cumulative IPC: 0.99518 (Simulation time: 0 hr 15 min 47 sec) 
Heartbeat CPU  0 instructions:  427000000 cycles:  371743102 heartbeat IPC: 1.19360 cumulative IPC: 0.99569 (Simulation time: 0 hr 15 min 49 sec) 
Heartbeat CPU  0 instructions:  428000000 cycles:  372703986 heartbeat IPC: 1.04071 cumulative IPC: 0.99582 (Simulation time: 0 hr 15 min 52 sec) 
Heartbeat CPU  0 instructions:  429000002 cycles:  373854622 heartbeat IPC: 0.86909 cumulative IPC: 0.99538 (Simulation time: 0 hr 15 min 54 sec) 
Heartbeat CPU  0 instructions:  430000001 cycles:  374994206 heartbeat IPC: 0.87751 cumulative IPC: 0.99497 (Simulation time: 0 hr 15 min 56 sec) 
Heartbeat CPU  0 instructions:  431000001 cycles:  376118610 heartbeat IPC: 0.88936 cumulative IPC: 0.99462 (Simulation time: 0 hr 15 min 59 sec) 
Heartbeat CPU  0 instructions:  432000000 cycles:  377189152 heartbeat IPC: 0.93411 cumulative IPC: 0.99442 (Simulation time: 0 hr 16 min 1 sec) 
Heartbeat CPU  0 instructions:  433000003 cycles:  378075336 heartbeat IPC: 1.12844 cumulative IPC: 0.99478 (Simulation time: 0 hr 16 min 3 sec) 
Heartbeat CPU  0 instructions:  434000003 cycles:  378919799 heartbeat IPC: 1.18418 cumulative IPC: 0.99525 (Simulation time: 0 hr 16 min 6 sec) 
Heartbeat CPU  0 instructions:  435000000 cycles:  380019508 heartbeat IPC: 0.90933 cumulative IPC: 0.99497 (Simulation time: 0 hr 16 min 8 sec) 
Heartbeat CPU  0 instructions:  436000000 cycles:  381146691 heartbeat IPC: 0.88717 cumulative IPC: 0.99461 (Simulation time: 0 hr 16 min 10 sec) 
Heartbeat CPU  0 instructions:  437000002 cycles:  382280558 heartbeat IPC: 0.88194 cumulative IPC: 0.99424 (Simulation time: 0 hr 16 min 13 sec) 
Heartbeat CPU  0 instructions:  438000000 cycles:  383330639 heartbeat IPC: 0.95231 cumulative IPC: 0.99411 (Simulation time: 0 hr 16 min 15 sec) 
Heartbeat CPU  0 instructions:  439000002 cycles:  384206871 heartbeat IPC: 1.14125 cumulative IPC: 0.99448 (Simulation time: 0 hr 16 min 17 sec) 
Heartbeat CPU  0 instructions:  440000000 cycles:  385048210 heartbeat IPC: 1.18858 cumulative IPC: 0.99496 (Simulation time: 0 hr 16 min 20 sec) 
Heartbeat CPU  0 instructions:  441000002 cycles:  386139448 heartbeat IPC: 0.91639 cumulative IPC: 0.99471 (Simulation time: 0 hr 16 min 22 sec) 
Heartbeat CPU  0 instructions:  442000000 cycles:  387267103 heartbeat IPC: 0.88679 cumulative IPC: 0.99436 (Simulation time: 0 hr 16 min 25 sec) 
Heartbeat CPU  0 instructions:  443000002 cycles:  388399135 heartbeat IPC: 0.88337 cumulative IPC: 0.99399 (Simulation time: 0 hr 16 min 27 sec) 
Heartbeat CPU  0 instructions:  444000000 cycles:  389454458 heartbeat IPC: 0.94758 cumulative IPC: 0.99385 (Simulation time: 0 hr 16 min 29 sec) 
Heartbeat CPU  0 instructions:  445000000 cycles:  390322560 heartbeat IPC: 1.15194 cumulative IPC: 0.99425 (Simulation time: 0 hr 16 min 32 sec) 
Heartbeat CPU  0 instructions:  446000001 cycles:  391172352 heartbeat IPC: 1.17676 cumulative IPC: 0.99469 (Simulation time: 0 hr 16 min 34 sec) 
Heartbeat CPU  0 instructions:  447000003 cycles:  392277329 heartbeat IPC: 0.90500 cumulative IPC: 0.99441 (Simulation time: 0 hr 16 min 36 sec) 
Heartbeat CPU  0 instructions:  448000000 cycles:  393405514 heartbeat IPC: 0.88638 cumulative IPC: 0.99406 (Simulation time: 0 hr 16 min 39 sec) 
Heartbeat CPU  0 instructions:  449000001 cycles:  394518476 heartbeat IPC: 0.89850 cumulative IPC: 0.99376 (Simulation time: 0 hr 16 min 41 sec) 
Heartbeat CPU  0 instructions:  450000002 cycles:  395666010 heartbeat IPC: 0.87143 cumulative IPC: 0.99336 (Simulation time: 0 hr 16 min 43 sec) 
Heartbeat CPU  0 instructions:  451000003 cycles:  396576724 heartbeat IPC: 1.09804 cumulative IPC: 0.99363 (Simulation time: 0 hr 16 min 46 sec) 
Heartbeat CPU  0 instructions:  452000000 cycles:  397405767 heartbeat IPC: 1.20621 cumulative IPC: 0.99413 (Simulation time: 0 hr 16 min 48 sec) 
Heartbeat CPU  0 instructions:  453000000 cycles:  398368219 heartbeat IPC: 1.03901 cumulative IPC: 0.99425 (Simulation time: 0 hr 16 min 50 sec) 
Heartbeat CPU  0 instructions:  454000002 cycles:  399477660 heartbeat IPC: 0.90136 cumulative IPC: 0.99396 (Simulation time: 0 hr 16 min 53 sec) 
Heartbeat CPU  0 instructions:  455000002 cycles:  400606404 heartbeat IPC: 0.88594 cumulative IPC: 0.99362 (Simulation time: 0 hr 16 min 55 sec) 
Heartbeat CPU  0 instructions:  456000000 cycles:  401698178 heartbeat IPC: 0.91594 cumulative IPC: 0.99338 (Simulation time: 0 hr 16 min 57 sec) 
Heartbeat CPU  0 instructions:  457000003 cycles:  402728801 heartbeat IPC: 0.97029 cumulative IPC: 0.99332 (Simulation time: 0 hr 17 min 0 sec) 
Heartbeat CPU  0 instructions:  458000001 cycles:  403629977 heartbeat IPC: 1.10966 cumulative IPC: 0.99361 (Simulation time: 0 hr 17 min 2 sec) 
Heartbeat CPU  0 instructions:  459000003 cycles:  404473074 heartbeat IPC: 1.18611 cumulative IPC: 0.99406 (Simulation time: 0 hr 17 min 4 sec) 
Heartbeat CPU  0 instructions:  460000000 cycles:  405556500 heartbeat IPC: 0.92300 cumulative IPC: 0.99384 (Simulation time: 0 hr 17 min 7 sec) 
Heartbeat CPU  0 instructions:  461000002 cycles:  406690661 heartbeat IPC: 0.88171 cumulative IPC: 0.99349 (Simulation time: 0 hr 17 min 9 sec) 
Heartbeat CPU  0 instructions:  462000000 cycles:  407781982 heartbeat IPC: 0.91632 cumulative IPC: 0.99326 (Simulation time: 0 hr 17 min 12 sec) 
Heartbeat CPU  0 instructions:  463000000 cycles:  408833195 heartbeat IPC: 0.95128 cumulative IPC: 0.99314 (Simulation time: 0 hr 17 min 14 sec) 
Heartbeat CPU  0 instructions:  464000000 cycles:  409719890 heartbeat IPC: 1.12778 cumulative IPC: 0.99347 (Simulation time: 0 hr 17 min 16 sec) 
Heartbeat CPU  0 instructions:  465000000 cycles:  410561502 heartbeat IPC: 1.18820 cumulative IPC: 0.99391 (Simulation time: 0 hr 17 min 19 sec) 
Heartbeat CPU  0 instructions:  466000002 cycles:  411628387 heartbeat IPC: 0.93731 cumulative IPC: 0.99375 (Simulation time: 0 hr 17 min 21 sec) 
Heartbeat CPU  0 instructions:  467000002 cycles:  412760803 heartbeat IPC: 0.88307 cumulative IPC: 0.99341 (Simulation time: 0 hr 17 min 23 sec) 
Heartbeat CPU  0 instructions:  468000000 cycles:  413892339 heartbeat IPC: 0.88375 cumulative IPC: 0.99308 (Simulation time: 0 hr 17 min 26 sec) 
Heartbeat CPU  0 instructions:  469000001 cycles:  414804784 heartbeat IPC: 1.09596 cumulative IPC: 0.99333 (Simulation time: 0 hr 17 min 28 sec) 
Heartbeat CPU  0 instructions:  470000002 cycles:  415647299 heartbeat IPC: 1.18692 cumulative IPC: 0.99377 (Simulation time: 0 hr 17 min 30 sec) 
Heartbeat CPU  0 instructions:  471000001 cycles:  416571157 heartbeat IPC: 1.08242 cumulative IPC: 0.99399 (Simulation time: 0 hr 17 min 33 sec) 
Heartbeat CPU  0 instructions:  472000000 cycles:  417703909 heartbeat IPC: 0.88280 cumulative IPC: 0.99365 (Simulation time: 0 hr 17 min 35 sec) 
Heartbeat CPU  0 instructions:  473000003 cycles:  418823680 heartbeat IPC: 0.89304 cumulative IPC: 0.99335 (Simulation time: 0 hr 17 min 37 sec) 
Heartbeat CPU  0 instructions:  474000003 cycles:  419898927 heartbeat IPC: 0.93002 cumulative IPC: 0.99317 (Simulation time: 0 hr 17 min 40 sec) 
Heartbeat CPU  0 instructions:  475000003 cycles:  420758361 heartbeat IPC: 1.16356 cumulative IPC: 0.99356 (Simulation time: 0 hr 17 min 42 sec) 
Heartbeat CPU  0 instructions:  476000000 cycles:  421618670 heartbeat IPC: 1.16237 cumulative IPC: 0.99394 (Simulation time: 0 hr 17 min 44 sec) 
Heartbeat CPU  0 instructions:  477000000 cycles:  422471208 heartbeat IPC: 1.17297 cumulative IPC: 0.99434 (Simulation time: 0 hr 17 min 47 sec) 
Heartbeat CPU  0 instructions:  478000002 cycles:  423582133 heartbeat IPC: 0.90015 cumulative IPC: 0.99407 (Simulation time: 0 hr 17 min 49 sec) 
Heartbeat CPU  0 instructions:  479000003 cycles:  424713174 heartbeat IPC: 0.88414 cumulative IPC: 0.99374 (Simulation time: 0 hr 17 min 52 sec) 
Heartbeat CPU  0 instructions:  480000000 cycles:  425770784 heartbeat IPC: 0.94553 cumulative IPC: 0.99361 (Simulation time: 0 hr 17 min 54 sec) 
Heartbeat CPU  0 instructions:  481000002 cycles:  426671167 heartbeat IPC: 1.11064 cumulative IPC: 0.99388 (Simulation time: 0 hr 17 min 56 sec) 
Heartbeat CPU  0 instructions:  482000002 cycles:  427506507 heartbeat IPC: 1.19712 cumulative IPC: 0.99433 (Simulation time: 0 hr 17 min 59 sec) 
Heartbeat CPU  0 instructions:  483000003 cycles:  428541763 heartbeat IPC: 0.96595 cumulative IPC: 0.99425 (Simulation time: 0 hr 18 min 1 sec) 
Heartbeat CPU  0 instructions:  484000000 cycles:  429652804 heartbeat IPC: 0.90005 cumulative IPC: 0.99398 (Simulation time: 0 hr 18 min 3 sec) 
Heartbeat CPU  0 instructions:  485000003 cycles:  430770701 heartbeat IPC: 0.89454 cumulative IPC: 0.99369 (Simulation time: 0 hr 18 min 6 sec) 
Heartbeat CPU  0 instructions:  486000002 cycles:  431902075 heartbeat IPC: 0.88388 cumulative IPC: 0.99337 (Simulation time: 0 hr 18 min 8 sec) 
Heartbeat CPU  0 instructions:  487000002 cycles:  432861997 heartbeat IPC: 1.04175 cumulative IPC: 0.99349 (Simulation time: 0 hr 18 min 10 sec) 
Heartbeat CPU  0 instructions:  488000000 cycles:  433709293 heartbeat IPC: 1.18022 cumulative IPC: 0.99390 (Simulation time: 0 hr 18 min 13 sec) 
Heartbeat CPU  0 instructions:  489000000 cycles:  434635633 heartbeat IPC: 1.07952 cumulative IPC: 0.99410 (Simulation time: 0 hr 18 min 15 sec) 
Heartbeat CPU  0 instructions:  490000000 cycles:  435761751 heartbeat IPC: 0.88801 cumulative IPC: 0.99379 (Simulation time: 0 hr 18 min 17 sec) 
Heartbeat CPU  0 instructions:  491000002 cycles:  436907672 heartbeat IPC: 0.87266 cumulative IPC: 0.99344 (Simulation time: 0 hr 18 min 20 sec) 
Heartbeat CPU  0 instructions:  492000000 cycles:  438040420 heartbeat IPC: 0.88281 cumulative IPC: 0.99312 (Simulation time: 0 hr 18 min 22 sec) 
Heartbeat CPU  0 instructions:  493000002 cycles:  439070293 heartbeat IPC: 0.97100 cumulative IPC: 0.99307 (Simulation time: 0 hr 18 min 24 sec) 
Heartbeat CPU  0 instructions:  494000000 cycles:  439930094 heartbeat IPC: 1.16306 cumulative IPC: 0.99344 (Simulation time: 0 hr 18 min 27 sec) 
Heartbeat CPU  0 instructions:  495000001 cycles:  440784835 heartbeat IPC: 1.16995 cumulative IPC: 0.99381 (Simulation time: 0 hr 18 min 29 sec) 
Heartbeat CPU  0 instructions:  496000000 cycles:  441911185 heartbeat IPC: 0.88782 cumulative IPC: 0.99352 (Simulation time: 0 hr 18 min 31 sec) 
Heartbeat CPU  0 instructions:  497000001 cycles:  443065670 heartbeat IPC: 0.86619 cumulative IPC: 0.99315 (Simulation time: 0 hr 18 min 34 sec) 
Heartbeat CPU  0 instructions:  498000000 cycles:  444198932 heartbeat IPC: 0.88241 cumulative IPC: 0.99283 (Simulation time: 0 hr 18 min 36 sec) 
Heartbeat CPU  0 instructions:  499000002 cycles:  445255752 heartbeat IPC: 0.94624 cumulative IPC: 0.99271 (Simulation time: 0 hr 18 min 38 sec) 
Heartbeat CPU  0 instructions:  500000000 cycles:  446179044 heartbeat IPC: 1.08308 cumulative IPC: 0.99292 (Simulation time: 0 hr 18 min 41 sec) 
Heartbeat CPU  0 instructions:  501000002 cycles:  447022936 heartbeat IPC: 1.18499 cumulative IPC: 0.99332 (Simulation time: 0 hr 18 min 43 sec) 
Heartbeat CPU  0 instructions:  502000000 cycles:  448120173 heartbeat IPC: 0.91138 cumulative IPC: 0.99310 (Simulation time: 0 hr 18 min 46 sec) 
Heartbeat CPU  0 instructions:  503000000 cycles:  449244265 heartbeat IPC: 0.88961 cumulative IPC: 0.99281 (Simulation time: 0 hr 18 min 48 sec) 
Heartbeat CPU  0 instructions:  504000000 cycles:  450391941 heartbeat IPC: 0.87133 cumulative IPC: 0.99247 (Simulation time: 0 hr 18 min 50 sec) 
Heartbeat CPU  0 instructions:  505000000 cycles:  451526361 heartbeat IPC: 0.88151 cumulative IPC: 0.99216 (Simulation time: 0 hr 18 min 53 sec) 
Heartbeat CPU  0 instructions:  506000001 cycles:  452528905 heartbeat IPC: 0.99746 cumulative IPC: 0.99217 (Simulation time: 0 hr 18 min 55 sec) 
Heartbeat CPU  0 instructions:  507000000 cycles:  453375798 heartbeat IPC: 1.18079 cumulative IPC: 0.99256 (Simulation time: 0 hr 18 min 57 sec) 
Heartbeat CPU  0 instructions:  508000000 cycles:  454336537 heartbeat IPC: 1.04087 cumulative IPC: 0.99268 (Simulation time: 0 hr 19 min 0 sec) 
Heartbeat CPU  0 instructions:  509000003 cycles:  455488145 heartbeat IPC: 0.86835 cumulative IPC: 0.99233 (Simulation time: 0 hr 19 min 2 sec) 
Heartbeat CPU  0 instructions:  510000002 cycles:  456618849 heartbeat IPC: 0.88440 cumulative IPC: 0.99203 (Simulation time: 0 hr 19 min 5 sec) 
Heartbeat CPU  0 instructions:  511000001 cycles:  457754720 heartbeat IPC: 0.88038 cumulative IPC: 0.99173 (Simulation time: 0 hr 19 min 7 sec) 
Heartbeat CPU  0 instructions:  512000000 cycles:  458931804 heartbeat IPC: 0.84956 cumulative IPC: 0.99133 (Simulation time: 0 hr 19 min 9 sec) 
Heartbeat CPU  0 instructions:  513000000 cycles:  459884256 heartbeat IPC: 1.04992 cumulative IPC: 0.99146 (Simulation time: 0 hr 19 min 12 sec) 
Heartbeat CPU  0 instructions:  514000000 cycles:  460721895 heartbeat IPC: 1.19383 cumulative IPC: 0.99187 (Simulation time: 0 hr 19 min 14 sec) 
Heartbeat CPU  0 instructions:  515000000 cycles:  461730891 heartbeat IPC: 0.99108 cumulative IPC: 0.99186 (Simulation time: 0 hr 19 min 16 sec) 
Heartbeat CPU  0 instructions:  516000000 cycles:  462866628 heartbeat IPC: 0.88049 cumulative IPC: 0.99156 (Simulation time: 0 hr 19 min 19 sec) 
Heartbeat CPU  0 instructions:  517000000 cycles:  463971765 heartbeat IPC: 0.90487 cumulative IPC: 0.99133 (Simulation time: 0 hr 19 min 21 sec) 
Heartbeat CPU  0 instructions:  518000003 cycles:  465098965 heartbeat IPC: 0.88716 cumulative IPC: 0.99106 (Simulation time: 0 hr 19 min 23 sec) 
Heartbeat CPU  0 instructions:  519000002 cycles:  466233390 heartbeat IPC: 0.88150 cumulative IPC: 0.99076 (Simulation time: 0 hr 19 min 26 sec) 
Heartbeat CPU  0 instructions:  520000000 cycles:  467173518 heartbeat IPC: 1.06368 cumulative IPC: 0.99092 (Simulation time: 0 hr 19 min 28 sec) 
Heartbeat CPU  0 instructions:  521000003 cycles:  468010121 heartbeat IPC: 1.19531 cumulative IPC: 0.99133 (Simulation time: 0 hr 19 min 30 sec) 
Heartbeat CPU  0 instructions:  522000001 cycles:  469041919 heartbeat IPC: 0.96918 cumulative IPC: 0.99127 (Simulation time: 0 hr 19 min 33 sec) 
Heartbeat CPU  0 instructions:  523000000 cycles:  470171227 heartbeat IPC: 0.88550 cumulative IPC: 0.99099 (Simulation time: 0 hr 19 min 35 sec) 
Heartbeat CPU  0 instructions:  524000000 cycles:  471255770 heartbeat IPC: 0.92205 cumulative IPC: 0.99082 (Simulation time: 0 hr 19 min 38 sec) 
Heartbeat CPU  0 instructions:  525000001 cycles:  472389769 heartbeat IPC: 0.88184 cumulative IPC: 0.99053 (Simulation time: 0 hr 19 min 40 sec) 
Heartbeat CPU  0 instructions:  526000000 cycles:  473482043 heartbeat IPC: 0.91552 cumulative IPC: 0.99034 (Simulation time: 0 hr 19 min 42 sec) 
Heartbeat CPU  0 instructions:  527000003 cycles:  474416834 heartbeat IPC: 1.06976 cumulative IPC: 0.99051 (Simulation time: 0 hr 19 min 45 sec) 
Heartbeat CPU  0 instructions:  528000000 cycles:  475264307 heartbeat IPC: 1.17998 cumulative IPC: 0.99088 (Simulation time: 0 hr 19 min 47 sec) 
Heartbeat CPU  0 instructions:  529000003 cycles:  476322017 heartbeat IPC: 0.94544 cumulative IPC: 0.99077 (Simulation time: 0 hr 19 min 49 sec) 
Heartbeat CPU  0 instructions:  530000003 cycles:  477439627 heartbeat IPC: 0.89477 cumulative IPC: 0.99053 (Simulation time: 0 hr 19 min 52 sec) 
Heartbeat CPU  0 instructions:  531000002 cycles:  478534775 heartbeat IPC: 0.91312 cumulative IPC: 0.99033 (Simulation time: 0 hr 19 min 54 sec) 
Heartbeat CPU  0 instructions:  532000000 cycles:  479663669 heartbeat IPC: 0.88582 cumulative IPC: 0.99006 (Simulation time: 0 hr 19 min 56 sec) 
Heartbeat CPU  0 instructions:  533000000 cycles:  480794960 heartbeat IPC: 0.88395 cumulative IPC: 0.98979 (Simulation time: 0 hr 19 min 59 sec) 
[...]
Heartbeat CPU  0 instructions:  487000000 cycles: 2613289496 heartbeat IPC: 0.49615 cumulative IPC: 0.15453 (Simulation time: 0 hr 42 min 31 sec) 
Heartbeat CPU  0 instructions:  488000000 cycles: 2615013824 heartbeat IPC: 0.57994 cumulative IPC: 0.15482 (Simulation time: 0 hr 42 min 34 sec) 
Heartbeat CPU  0 instructions:  489000003 cycles: 2617323676 heartbeat IPC: 0.43293 cumulative IPC: 0.15507 (Simulation time: 0 hr 42 min 37 sec) 
Heartbeat CPU  0 instructions:  490000001 cycles: 2619461793 heartbeat IPC: 0.46770 cumulative IPC: 0.15534 (Simulation time: 0 hr 42 min 41 sec) 
Heartbeat CPU  0 instructions:  491000002 cycles: 2621443300 heartbeat IPC: 0.50467 cumulative IPC: 0.15562 (Simulation time: 0 hr 42 min 44 sec) 
Heartbeat CPU  0 instructions:  492000000 cycles: 2623450791 heartbeat IPC: 0.49813 cumulative IPC: 0.15589 (Simulation time: 0 hr 42 min 47 sec) 
Heartbeat CPU  0 instructions:  493000000 cycles: 2625454314 heartbeat IPC: 0.49912 cumulative IPC: 0.15616 (Simulation time: 0 hr 42 min 50 sec) 
Heartbeat CPU  0 instructions:  494000003 cycles: 2627518942 heartbeat IPC: 0.48435 cumulative IPC: 0.15643 (Simulation time: 0 hr 42 min 53 sec) 
Heartbeat CPU  0 instructions:  495000003 cycles: 2629521743 heartbeat IPC: 0.49930 cumulative IPC: 0.15670 (Simulation time: 0 hr 42 min 57 sec) 
Heartbeat CPU  0 instructions:  496000000 cycles: 2631563319 heartbeat IPC: 0.48982 cumulative IPC: 0.15697 (Simulation time: 0 hr 43 min 0 sec) 
Heartbeat CPU  0 instructions:  497000001 cycles: 2633582399 heartbeat IPC: 0.49528 cumulative IPC: 0.15724 (Simulation time: 0 hr 43 min 3 sec) 
Heartbeat CPU  0 instructions:  498000000 cycles: 2635591231 heartbeat IPC: 0.49780 cumulative IPC: 0.15752 (Simulation time: 0 hr 43 min 6 sec) 
Heartbeat CPU  0 instructions:  499000002 cycles: 2637719167 heartbeat IPC: 0.46994 cumulative IPC: 0.15778 (Simulation time: 0 hr 43 min 9 sec) 
Heartbeat CPU  0 instructions:  500000000 cycles: 2640001482 heartbeat IPC: 0.43815 cumulative IPC: 0.15803 (Simulation time: 0 hr 43 min 13 sec) 
Heartbeat CPU  0 instructions:  501000000 cycles: 2642454728 heartbeat IPC: 0.40762 cumulative IPC: 0.15827 (Simulation time: 0 hr 43 min 17 sec) 
Heartbeat CPU  0 instructions:  502000002 cycles: 2644474829 heartbeat IPC: 0.49503 cumulative IPC: 0.15854 (Simulation time: 0 hr 43 min 20 sec) 
Heartbeat CPU  0 instructions:  503000001 cycles: 2646488078 heartbeat IPC: 0.49671 cumulative IPC: 0.15881 (Simulation time: 0 hr 43 min 23 sec) 
Heartbeat CPU  0 instructions:  504000000 cycles: 2648931015 heartbeat IPC: 0.40934 cumulative IPC: 0.15905 (Simulation time: 0 hr 43 min 27 sec) 
Heartbeat CPU  0 instructions:  505000003 cycles: 2651563390 heartbeat IPC: 0.37989 cumulative IPC: 0.15928 (Simulation time: 0 hr 43 min 31 sec) 
Heartbeat CPU  0 instructions:  506000000 cycles: 2653761606 heartbeat IPC: 0.45491 cumulative IPC: 0.15953 (Simulation time: 0 hr 43 min 34 sec) 
Heartbeat CPU  0 instructions:  507000003 cycles: 2656010027 heartbeat IPC: 0.44476 cumulative IPC: 0.15979 (Simulation time: 0 hr 43 min 37 sec) 
Heartbeat CPU  0 instructions:  508000000 cycles: 2658185934 heartbeat IPC: 0.45958 cumulative IPC: 0.16004 (Simulation time: 0 hr 43 min 41 sec) 
Heartbeat CPU  0 instructions:  509000000 cycles: 2660287294 heartbeat IPC: 0.47588 cumulative IPC: 0.16030 (Simulation time: 0 hr 43 min 44 sec) 
Heartbeat CPU  0 instructions:  510000000 cycles: 2662321564 heartbeat IPC: 0.49158 cumulative IPC: 0.16057 (Simulation time: 0 hr 43 min 47 sec) 
Heartbeat CPU  0 instructions:  511000000 cycles: 2664355475 heartbeat IPC: 0.49166 cumulative IPC: 0.16083 (Simulation time: 0 hr 43 min 51 sec) 
Heartbeat CPU  0 instructions:  512000000 cycles: 2666407954 heartbeat IPC: 0.48722 cumulative IPC: 0.16109 (Simulation time: 0 hr 43 min 54 sec) 
Heartbeat CPU  0 instructions:  513000003 cycles: 2668470222 heartbeat IPC: 0.48490 cumulative IPC: 0.16135 (Simulation time: 0 hr 43 min 57 sec) 
Heartbeat CPU  0 instructions:  514000000 cycles: 2670899755 heartbeat IPC: 0.41160 cumulative IPC: 0.16159 (Simulation time: 0 hr 44 min 1 sec) 
Heartbeat CPU  0 instructions:  515000001 cycles: 2673030307 heartbeat IPC: 0.46936 cumulative IPC: 0.16185 (Simulation time: 0 hr 44 min 4 sec) 
Heartbeat CPU  0 instructions:  516000000 cycles: 2675163604 heartbeat IPC: 0.46876 cumulative IPC: 0.16210 (Simulation time: 0 hr 44 min 7 sec) 
Heartbeat CPU  0 instructions:  517000002 cycles: 2677622723 heartbeat IPC: 0.40665 cumulative IPC: 0.16233 (Simulation time: 0 hr 44 min 11 sec) 
Heartbeat CPU  0 instructions:  518000000 cycles: 2679700508 heartbeat IPC: 0.48128 cumulative IPC: 0.16259 (Simulation time: 0 hr 44 min 14 sec) 
Heartbeat CPU  0 instructions:  519000001 cycles: 2681748707 heartbeat IPC: 0.48823 cumulative IPC: 0.16285 (Simulation time: 0 hr 44 min 17 sec) 
Heartbeat CPU  0 instructions:  520000000 cycles: 2683775044 heartbeat IPC: 0.49350 cumulative IPC: 0.16311 (Simulation time: 0 hr 44 min 21 sec) 
Heartbeat CPU  0 instructions:  521000002 cycles: 2685507039 heartbeat IPC: 0.57737 cumulative IPC: 0.16339 (Simulation time: 0 hr 44 min 23 sec) 
Heartbeat CPU  0 instructions:  522000001 cycles: 2687504296 heartbeat IPC: 0.50069 cumulative IPC: 0.16365 (Simulation time: 0 hr 44 min 26 sec) 
Heartbeat CPU  0 instructions:  523000001 cycles: 2689554074 heartbeat IPC: 0.48786 cumulative IPC: 0.16391 (Simulation time: 0 hr 44 min 30 sec) 
Heartbeat CPU  0 instructions:  524000000 cycles: 2691648269 heartbeat IPC: 0.47751 cumulative IPC: 0.16416 (Simulation time: 0 hr 44 min 33 sec) 
Heartbeat CPU  0 instructions:  525000001 cycles: 2693695789 heartbeat IPC: 0.48840 cumulative IPC: 0.16442 (Simulation time: 0 hr 44 min 36 sec) 
Heartbeat CPU  0 instructions:  526000000 cycles: 2695822287 heartbeat IPC: 0.47026 cumulative IPC: 0.16467 (Simulation time: 0 hr 44 min 39 sec) 
Heartbeat CPU  0 instructions:  527000001 cycles: 2697953226 heartbeat IPC: 0.46928 cumulative IPC: 0.16492 (Simulation time: 0 hr 44 min 43 sec) 
Heartbeat CPU  0 instructions:  528000000 cycles: 2700220059 heartbeat IPC: 0.44114 cumulative IPC: 0.16516 (Simulation time: 0 hr 44 min 46 sec) 
Heartbeat CPU  0 instructions:  529000000 cycles: 2702226250 heartbeat IPC: 0.49846 cumulative IPC: 0.16542 (Simulation time: 0 hr 44 min 49 sec) 
Heartbeat CPU  0 instructions:  530000000 cycles: 2704283014 heartbeat IPC: 0.48620 cumulative IPC: 0.16568 (Simulation time: 0 hr 44 min 52 sec) 
Heartbeat CPU  0 instructions:  531000001 cycles: 2706349814 heartbeat IPC: 0.48384 cumulative IPC: 0.16593 (Simulation time: 0 hr 44 min 56 sec) 
Heartbeat CPU  0 instructions:  532000000 cycles: 2708543605 heartbeat IPC: 0.45583 cumulative IPC: 0.16617 (Simulation time: 0 hr 44 min 59 sec) 
Heartbeat CPU  0 instructions:  533000000 cycles: 2710433914 heartbeat IPC: 0.52901 cumulative IPC: 0.16644 (Simulation time: 0 hr 45 min 2 sec) 
Heartbeat CPU  0 instructions:  534000000 cycles: 2712864326 heartbeat IPC: 0.41145 cumulative IPC: 0.16667 (Simulation time: 0 hr 45 min 6 sec) 
Heartbeat CPU  0 instructions:  535000002 cycles: 2714542243 heartbeat IPC: 0.59598 cumulative IPC: 0.16694 (Simulation time: 0 hr 45 min 9 sec) 
Heartbeat CPU  0 instructions:  536000000 cycles: 2716479969 heartbeat IPC: 0.51607 cumulative IPC: 0.16720 (Simulation time: 0 hr 45 min 12 sec) 
Heartbeat CPU  0 instructions:  537000000 cycles: 2718415803 heartbeat IPC: 0.51657 cumulative IPC: 0.16746 (Simulation time: 0 hr 45 min 15 sec) 
Heartbeat CPU  0 instructions:  538000000 cycles: 2720338164 heartbeat IPC: 0.52019 cumulative IPC: 0.16772 (Simulation time: 0 hr 45 min 18 sec) 
Heartbeat CPU  0 instructions:  539000000 cycles: 2722276481 heartbeat IPC: 0.51591 cumulative IPC: 0.16798 (Simulation time: 0 hr 45 min 21 sec) 
Heartbeat CPU  0 instructions:  540000000 cycles: 2723958436 heartbeat IPC: 0.59455 cumulative IPC: 0.16825 (Simulation time: 0 hr 45 min 24 sec) 
Heartbeat CPU  0 instructions:  541000003 cycles: 2726207950 heartbeat IPC: 0.44454 cumulative IPC: 0.16849 (Simulation time: 0 hr 45 min 27 sec) 
Heartbeat CPU  0 instructions:  542000001 cycles: 2728341913 heartbeat IPC: 0.46861 cumulative IPC: 0.16874 (Simulation time: 0 hr 45 min 31 sec) 
Heartbeat CPU  0 instructions:  543000000 cycles: 2730403636 heartbeat IPC: 0.48503 cumulative IPC: 0.16898 (Simulation time: 0 hr 45 min 34 sec) 
Heartbeat CPU  0 instructions:  544000000 cycles: 2732353071 heartbeat IPC: 0.51297 cumulative IPC: 0.16924 (Simulation time: 0 hr 45 min 37 sec) 
Heartbeat CPU  0 instructions:  545000000 cycles: 2734428067 heartbeat IPC: 0.48193 cumulative IPC: 0.16949 (Simulation time: 0 hr 45 min 40 sec) 
Heartbeat CPU  0 instructions:  546000003 cycles: 2736544215 heartbeat IPC: 0.47256 cumulative IPC: 0.16973 (Simulation time: 0 hr 45 min 44 sec) 
Heartbeat CPU  0 instructions:  547000000 cycles: 2738479110 heartbeat IPC: 0.51682 cumulative IPC: 0.16999 (Simulation time: 0 hr 45 min 47 sec) 
Heartbeat CPU  0 instructions:  548000000 cycles: 2740467199 heartbeat IPC: 0.50300 cumulative IPC: 0.17024 (Simulation time: 0 hr 45 min 50 sec) 
Heartbeat CPU  0 instructions:  549000000 cycles: 2742489749 heartbeat IPC: 0.49443 cumulative IPC: 0.17049 (Simulation time: 0 hr 45 min 53 sec) 
Heartbeat CPU  0 instructions:  550000000 cycles: 2744630619 heartbeat IPC: 0.46710 cumulative IPC: 0.17073 (Simulation time: 0 hr 45 min 57 sec) 
Heartbeat CPU  0 instructions:  551000003 cycles: 2746628615 heartbeat IPC: 0.50050 cumulative IPC: 0.17098 (Simulation time: 0 hr 46 min 0 sec) 
Heartbeat CPU  0 instructions:  552000000 cycles: 2748603122 heartbeat IPC: 0.50645 cumulative IPC: 0.17123 (Simulation time: 0 hr 46 min 3 sec) 
Heartbeat CPU  0 instructions:  553000000 cycles: 2750622827 heartbeat IPC: 0.49512 cumulative IPC: 0.17148 (Simulation time: 0 hr 46 min 6 sec) 
Heartbeat CPU  0 instructions:  554000002 cycles: 2752697227 heartbeat IPC: 0.48207 cumulative IPC: 0.17172 (Simulation time: 0 hr 46 min 9 sec) 
Heartbeat CPU  0 instructions:  555000002 cycles: 2754792373 heartbeat IPC: 0.47729 cumulative IPC: 0.17196 (Simulation time: 0 hr 46 min 12 sec) 
Heartbeat CPU  0 instructions:  556000000 cycles: 2756720941 heartbeat IPC: 0.51852 cumulative IPC: 0.17221 (Simulation time: 0 hr 46 min 15 sec) 
Heartbeat CPU  0 instructions:  557000001 cycles: 2758782753 heartbeat IPC: 0.48501 cumulative IPC: 0.17246 (Simulation time: 0 hr 46 min 18 sec) 
Heartbeat CPU  0 instructions:  558000003 cycles: 2760796679 heartbeat IPC: 0.49654 cumulative IPC: 0.17270 (Simulation time: 0 hr 46 min 22 sec) 
Heartbeat CPU  0 instructions:  559000002 cycles: 2762528056 heartbeat IPC: 0.57757 cumulative IPC: 0.17297 (Simulation time: 0 hr 46 min 24 sec) 
Heartbeat CPU  0 instructions:  560000000 cycles: 2764555961 heartbeat IPC: 0.49312 cumulative IPC: 0.17321 (Simulation time: 0 hr 46 min 28 sec) 
Heartbeat CPU  0 instructions:  561000003 cycles: 2766607555 heartbeat IPC: 0.48743 cumulative IPC: 0.17345 (Simulation time: 0 hr 46 min 31 sec) 
Heartbeat CPU  0 instructions:  562000001 cycles: 2768631794 heartbeat IPC: 0.49401 cumulative IPC: 0.17370 (Simulation time: 0 hr 46 min 34 sec) 
Heartbeat CPU  0 instructions:  563000001 cycles: 2770683490 heartbeat IPC: 0.48740 cumulative IPC: 0.17394 (Simulation time: 0 hr 46 min 37 sec) 
Heartbeat CPU  0 instructions:  564000000 cycles: 2772746932 heartbeat IPC: 0.48463 cumulative IPC: 0.17418 (Simulation time: 0 hr 46 min 40 sec) 
Heartbeat CPU  0 instructions:  565000002 cycles: 2774780339 heartbeat IPC: 0.49179 cumulative IPC: 0.17442 (Simulation time: 0 hr 46 min 43 sec) 
Heartbeat CPU  0 instructions:  566000003 cycles: 2776919660 heartbeat IPC: 0.46744 cumulative IPC: 0.17466 (Simulation time: 0 hr 46 min 46 sec) 
Heartbeat CPU  0 instructions:  567000000 cycles: 2778939064 heartbeat IPC: 0.49519 cumulative IPC: 0.17490 (Simulation time: 0 hr 46 min 50 sec) 
Heartbeat CPU  0 instructions:  568000000 cycles: 2780887623 heartbeat IPC: 0.51320 cumulative IPC: 0.17515 (Simulation time: 0 hr 46 min 53 sec) 
Heartbeat CPU  0 instructions:  569000000 cycles: 2782912086 heartbeat IPC: 0.49396 cumulative IPC: 0.17539 (Simulation time: 0 hr 46 min 56 sec) 
Heartbeat CPU  0 instructions:  570000001 cycles: 2785130642 heartbeat IPC: 0.45074 cumulative IPC: 0.17562 (Simulation time: 0 hr 46 min 59 sec) 
Heartbeat CPU  0 instructions:  571000000 cycles: 2786975670 heartbeat IPC: 0.54200 cumulative IPC: 0.17587 (Simulation time: 0 hr 47 min 2 sec) 
Heartbeat CPU  0 instructions:  572000000 cycles: 2789059127 heartbeat IPC: 0.47997 cumulative IPC: 0.17611 (Simulation time: 0 hr 47 min 5 sec) 
Heartbeat CPU  0 instructions:  573000001 cycles: 2791036454 heartbeat IPC: 0.50573 cumulative IPC: 0.17635 (Simulation time: 0 hr 47 min 8 sec) 
Heartbeat CPU  0 instructions:  574000000 cycles: 2793058652 heartbeat IPC: 0.49451 cumulative IPC: 0.17659 (Simulation time: 0 hr 47 min 11 sec) 
Heartbeat CPU  0 instructions:  575000003 cycles: 2795101041 heartbeat IPC: 0.48962 cumulative IPC: 0.17683 (Simulation time: 0 hr 47 min 15 sec) 
Heartbeat CPU  0 instructions:  576000000 cycles: 2797148268 heartbeat IPC: 0.48846 cumulative IPC: 0.17706 (Simulation time: 0 hr 47 min 18 sec) 
Heartbeat CPU  0 instructions:  577000000 cycles: 2798916206 heartbeat IPC: 0.56563 cumulative IPC: 0.17732 (Simulation time: 0 hr 47 min 21 sec) 
Heartbeat CPU  0 instructions:  578000002 cycles: 2800929568 heartbeat IPC: 0.49668 cumulative IPC: 0.17756 (Simulation time: 0 hr 47 min 24 sec) 
Heartbeat CPU  0 instructions:  579000003 cycles: 2802963239 heartbeat IPC: 0.49172 cumulative IPC: 0.17780 (Simulation time: 0 hr 47 min 27 sec) 
Heartbeat CPU  0 instructions:  580000000 cycles: 2804927065 heartbeat IPC: 0.50921 cumulative IPC: 0.17804 (Simulation time: 0 hr 47 min 30 sec) 
Heartbeat CPU  0 instructions:  581000001 cycles: 2806649970 heartbeat IPC: 0.58042 cumulative IPC: 0.17829 (Simulation time: 0 hr 47 min 33 sec) 
Heartbeat CPU  0 instructions:  582000000 cycles: 2808617914 heartbeat IPC: 0.50814 cumulative IPC: 0.17853 (Simulation time: 0 hr 47 min 36 sec) 
Heartbeat CPU  0 instructions:  583000000 cycles: 2810664727 heartbeat IPC: 0.48856 cumulative IPC: 0.17877 (Simulation time: 0 hr 47 min 39 sec) 
Heartbeat CPU  0 instructions:  584000000 cycles: 2812758311 heartbeat IPC: 0.47765 cumulative IPC: 0.17900 (Simulation time: 0 hr 47 min 42 sec) 
Heartbeat CPU  0 instructions:  585000001 cycles: 2814771760 heartbeat IPC: 0.49666 cumulative IPC: 0.17924 (Simulation time: 0 hr 47 min 45 sec) 
Heartbeat CPU  0 instructions:  586000001 cycles: 2816746145 heartbeat IPC: 0.50649 cumulative IPC: 0.17948 (Simulation time: 0 hr 47 min 48 sec) 
Heartbeat CPU  0 instructions:  587000001 cycles: 2818924252 heartbeat IPC: 0.45911 cumulative IPC: 0.17970 (Simulation time: 0 hr 47 min 52 sec) 
Heartbeat CPU  0 instructions:  588000000 cycles: 2821055455 heartbeat IPC: 0.46922 cumulative IPC: 0.17993 (Simulation time: 0 hr 47 min 55 sec) 
Heartbeat CPU  0 instructions:  589000002 cycles: 2823388262 heartbeat IPC: 0.42867 cumulative IPC: 0.18014 (Simulation time: 0 hr 47 min 58 sec) 
Heartbeat CPU  0 instructions:  590000001 cycles: 2825180351 heartbeat IPC: 0.55801 cumulative IPC: 0.18039 (Simulation time: 0 hr 48 min 1 sec) 
Heartbeat CPU  0 instructions:  591000001 cycles: 2827173256 heartbeat IPC: 0.50178 cumulative IPC: 0.18063 (Simulation time: 0 hr 48 min 4 sec) 
Heartbeat CPU  0 instructions:  592000000 cycles: 2829196629 heartbeat IPC: 0.49422 cumulative IPC: 0.18086 (Simulation time: 0 hr 48 min 7 sec) 
Heartbeat CPU  0 instructions:  593000000 cycles: 2831199435 heartbeat IPC: 0.49930 cumulative IPC: 0.18109 (Simulation time: 0 hr 48 min 11 sec) 
Heartbeat CPU  0 instructions:  594000003 cycles: 2833208454 heartbeat IPC: 0.49776 cumulative IPC: 0.18133 (Simulation time: 0 hr 48 min 14 sec) 
Heartbeat CPU  0 instructions:  595000000 cycles: 2835097804 heartbeat IPC: 0.52928 cumulative IPC: 0.18157 (Simulation time: 0 hr 48 min 17 sec) 
Heartbeat CPU  0 instructions:  596000000 cycles: 2836961100 heartbeat IPC: 0.53668 cumulative IPC: 0.18181 (Simulation time: 0 hr 48 min 20 sec) 
Heartbeat CPU  0 instructions:  597000001 cycles: 2838972051 heartbeat IPC: 0.49728 cumulative IPC: 0.18204 (Simulation time: 0 hr 48 min 23 sec) 
Heartbeat CPU  0 instructions:  598000001 cycles: 2840937456 heartbeat IPC: 0.50880 cumulative IPC: 0.18228 (Simulation time: 0 hr 48 min 26 sec) 
Heartbeat CPU  0 instructions:  599000003 cycles: 2842697120 heartbeat IPC: 0.56829 cumulative IPC: 0.18253 (Simulation time: 0 hr 48 min 29 sec) 
Heartbeat CPU  0 instructions:  600000000 cycles: 2844673989 heartbeat IPC: 0.50585 cumulative IPC: 0.18276 (Simulation time: 0 hr 48 min 32 sec) 
Finished CPU 0 instructions: 500000000 cycles: 2735817760 cumulative IPC: 0.18276 (Simulation time: 0 hr 48 min 32 sec) 

ChampSim completed all CPUs

[ROI Statistics]
Core_0_instructions 500000000
Core_0_cycles 2735817760
Core_0_IPC 0.18276

Core_0_branch_prediction_accuracy 95.55097
Core_0_branch_MPKI 5.00272
Core_0_average_ROB_occupancy_at_mispredict 120.34286

Core_0_L1D_total_access 238109306
Core_0_L1D_total_hit 201173005
Core_0_L1D_total_miss 36936301
Core_0_L1D_loads 155514781
Core_0_L1D_load_hit 134582925
Core_0_L1D_load_miss 20931856
Core_0_L1D_RFOs 82594525
Core_0_L1D_RFO_hit 66590080
Core_0_L1D_RFO_miss 16004445
Core_0_L1D_prefetches 0
Core_0_L1D_prefetch_hit 0
Core_0_L1D_prefetch_miss 0
Core_0_L1D_writebacks 0
Core_0_L1D_writeback_hit 0
Core_0_L1D_writeback_miss 0
Core_0_L1D_prefetch_requested 0
Core_0_L1D_prefetch_issued 0
Core_0_L1D_prefetch_useful 0
Core_0_L1D_prefetch_useless 0
Core_0_L1D_prefetch_late 0
Core_0_L1D_average_miss_latency 252.90978

Core_0_L1I_total_access 123687293
Core_0_L1I_total_hit 123687067
Core_0_L1I_total_miss 226
Core_0_L1I_loads 123687293
Core_0_L1I_load_hit 123687067
Core_0_L1I_load_miss 226
Core_0_L1I_RFOs 0
Core_0_L1I_RFO_hit 0
Core_0_L1I_RFO_miss 0
Core_0_L1I_prefetches 0
Core_0_L1I_prefetch_hit 0
Core_0_L1I_prefetch_miss 0
Core_0_L1I_writebacks 0
Core_0_L1I_writeback_hit 0
Core_0_L1I_writeback_miss 0
Core_0_L1I_prefetch_requested 0
Core_0_L1I_prefetch_issued 0
Core_0_L1I_prefetch_useful 0
Core_0_L1I_prefetch_useless 0
Core_0_L1I_prefetch_late 0
Core_0_L1I_average_miss_latency 208.92920

Core_0_L2C_total_access 83017883
Core_0_L2C_total_hit 44262728
Core_0_L2C_total_miss 38755155
Core_0_L2C_loads 20931731
Core_0_L2C_load_hit 7519716
Core_0_L2C_load_miss 13412015
Core_0_L2C_RFOs 16004443
Core_0_L2C_RFO_hit 155280
Core_0_L2C_RFO_miss 15849163
Core_0_L2C_prefetches 13973560
Core_0_L2C_prefetch_hit 4487035
Core_0_L2C_prefetch_miss 9486525
Core_0_L2C_writebacks 32108149
Core_0_L2C_writeback_hit 32100697
Core_0_L2C_writeback_miss 7452
Core_0_L2C_prefetch_requested 25573289
Core_0_L2C_prefetch_issued 25168526
Core_0_L2C_prefetch_useful 5943077
Core_0_L2C_prefetch_useless 7093567
Core_0_L2C_prefetch_late 2906616
Core_0_L2C_average_miss_latency 260.88392

Core_0_LLC_total_access 68601756
Core_0_LLC_total_hit 17812710
Core_0_LLC_total_miss 50789046
Core_0_LLC_loads 10543654
Core_0_LLC_load_hit 5625169
Core_0_LLC_load_miss 4918485
Core_0_LLC_RFOs 15849157
Core_0_LLC_RFO_hit 544056
Core_0_LLC_RFO_miss 15305101
Core_0_LLC_prefetches 12354674
Core_0_LLC_prefetch_hit 5244781
Core_0_LLC_prefetch_miss 7109893
Core_0_LLC_writebacks 29854271
Core_0_LLC_writeback_hit 6398704
Core_0_LLC_writeback_miss 23455567
Core_0_LLC_prefetch_requested 0
Core_0_LLC_prefetch_issued 0
Core_0_LLC_prefetch_useful 51019
Core_0_LLC_prefetch_useless 9394499
Core_0_LLC_prefetch_late 0
Core_0_LLC_average_miss_latency 175.20589

Core_0_major_page_fault 0
Core_0_minor_page_fault 401483

CPU 0 L2C next line prefetcher final stats
Channel_0_RQ_row_buffer_hit 926207
Channel_0_RQ_row_buffer_miss 26406122
Channel_0_WQ_row_buffer_hit 3389106
Channel_0_WQ_row_buffer_miss 21149357
Channel_0_WQ_full 257
Channel_0_dbus_congested 29867741

avg_congested_cycle 11
