Initialize SIGNATURE TABLE
ST_SET: 1
ST_WAY: 256
ST_TAG_BIT: 16
ST_TAG_MASK: ffff

Initialize PATTERN TABLE
PT_SET: 2048
PT_WAY: 4
SIG_DELTA_BIT: 7
C_SIG_BIT: 4
C_DELTA_BIT: 4

Initialize PREFETCH FILTER
FILTER_SET: 1024

Initialize PERCEPTRON
PERC_ENTRIES: 4096
PERC_FEATURES: 9
*************************************************
   ChampSim Multicore Out-of-Order Simulator
   Last compiled: Jan 20 2021 13:21:04
*************************************************

trace_0 traces/482.sphinx3-1100B.champsimtrace.xz
Initialize SHIP state
warmup_instructions 100000000
simulation_instructions 500000000
champsim_seed 260

num_cpus 1
cpu_freq 4000
dram_io_freq 2400
page_size 4096
block_size 64
max_read_per_cycle 8
max_fill_per_cycle 1
dram_channels 1
dram_ranks 1
dram_banks 8
dram_rows 65536
dram_columns 128
dram_row_size 8
dram_size 4096
dram_pages 1048576

fetch_width 6
decode_width 6
exec_width 4
lq_width 2
sq_width 2
retire_width 4
scheduler_size 128
branch_mispredict_penalty 20
rob_size 256
lq_size 72
sq_size 56
num_instr_destinations_sparc 4
num_instr_destinations 2
num_instr_sources 4

itlb_set 16
itlb_way 8
itlb_rq_size 16
itlb_wq_size 16
itlb_pq_size 0
itlb_mshr_size 8
itlb_latency 1

dtlb_set 16
dtlb_way 4
dtlb_rq_size 16
dtlb_wq_size 16
dtlb_pq_size 0
dtlb_mshr_size 8
dtlb_latency 1

stlb_set 128
stlb_way 12
stlb_rq_size 32
stlb_wq_size 32
stlb_pq_size 0
stlb_mshr_size 16
stlb_latency 8

l1i_size 32
l1i_set 64
l1i_way 8
l1i_rq_size 64
l1i_wq_size 64
l1i_pq_size 8
l1i_mshr_size 8
l1i_latency 1

l1d_size 32
l1d_set 64
l1d_way 8
l1d_rq_size 64
l1d_wq_size 64
l1d_pq_size 8
l1d_mshr_size 16
l1d_latency 4

l2c_size 512
l2c_set 1024
l2c_way 8
l2c_rq_size 32
l2c_wq_size 32
l2c_pq_size 16
l2c_mshr_size 32
l2c_latency 10

llc_size 2048
llc_set 2048
llc_way 16
llc_rq_size 32
llc_wq_size 32
llc_pq_size 32
llc_mshr_size 64
llc_latency 20

dram_channel_width 8
dram_wq_size 64
dram_rq_size 64
tRP 15
tRCD 15
tCAS 12.5
dram_dbus_turn_around_time 30
dram_write_high_wm 56
dram_write_low_wm 48
min_dram_writes_per_switch 16
dram_mtps 2400
dram_dbus_return_time 13


Heartbeat CPU  0 instructions:    1000001 cycles:     367698 heartbeat IPC: 2.71963 cumulative IPC: 2.71963 (Simulation time: 0 hr 0 min 2 sec) 
Heartbeat CPU  0 instructions:    2000003 cycles:     795227 heartbeat IPC: 2.33903 cumulative IPC: 2.51501 (Simulation time: 0 hr 0 min 4 sec) 
Heartbeat CPU  0 instructions:    3000001 cycles:    1253001 heartbeat IPC: 2.18448 cumulative IPC: 2.39425 (Simulation time: 0 hr 0 min 6 sec) 
Heartbeat CPU  0 instructions:    4000000 cycles:    1735594 heartbeat IPC: 2.07214 cumulative IPC: 2.30469 (Simulation time: 0 hr 0 min 7 sec) 
Heartbeat CPU  0 instructions:    5000000 cycles:    2178139 heartbeat IPC: 2.25966 cumulative IPC: 2.29554 (Simulation time: 0 hr 0 min 9 sec) 
Heartbeat CPU  0 instructions:    6000001 cycles:    2545499 heartbeat IPC: 2.72213 cumulative IPC: 2.35710 (Simulation time: 0 hr 0 min 11 sec) 
Heartbeat CPU  0 instructions:    7000000 cycles:    2936502 heartbeat IPC: 2.55752 cumulative IPC: 2.38379 (Simulation time: 0 hr 0 min 13 sec) 
Heartbeat CPU  0 instructions:    8000000 cycles:    3394986 heartbeat IPC: 2.18110 cumulative IPC: 2.35642 (Simulation time: 0 hr 0 min 15 sec) 
Heartbeat CPU  0 instructions:    9000000 cycles:    3852848 heartbeat IPC: 2.18406 cumulative IPC: 2.33593 (Simulation time: 0 hr 0 min 17 sec) 
Heartbeat CPU  0 instructions:   10000000 cycles:    4342999 heartbeat IPC: 2.04019 cumulative IPC: 2.30256 (Simulation time: 0 hr 0 min 19 sec) 
Heartbeat CPU  0 instructions:   11000001 cycles:    4715274 heartbeat IPC: 2.68619 cumulative IPC: 2.33284 (Simulation time: 0 hr 0 min 21 sec) 
Heartbeat CPU  0 instructions:   12000000 cycles:    5082448 heartbeat IPC: 2.72350 cumulative IPC: 2.36107 (Simulation time: 0 hr 0 min 23 sec) 
Heartbeat CPU  0 instructions:   13000001 cycles:    5531569 heartbeat IPC: 2.22657 cumulative IPC: 2.35015 (Simulation time: 0 hr 0 min 24 sec) 
Heartbeat CPU  0 instructions:   14000000 cycles:    5989481 heartbeat IPC: 2.18382 cumulative IPC: 2.33743 (Simulation time: 0 hr 0 min 26 sec) 
Heartbeat CPU  0 instructions:   15000000 cycles:    6471791 heartbeat IPC: 2.07336 cumulative IPC: 2.31775 (Simulation time: 0 hr 0 min 28 sec) 
Heartbeat CPU  0 instructions:   16000000 cycles:    6881791 heartbeat IPC: 2.43902 cumulative IPC: 2.32498 (Simulation time: 0 hr 0 min 30 sec) 
Heartbeat CPU  0 instructions:   17000003 cycles:    7249035 heartbeat IPC: 2.72299 cumulative IPC: 2.34514 (Simulation time: 0 hr 0 min 32 sec) 
Heartbeat CPU  0 instructions:   18000003 cycles:    7660945 heartbeat IPC: 2.42771 cumulative IPC: 2.34958 (Simulation time: 0 hr 0 min 34 sec) 
Heartbeat CPU  0 instructions:   19000003 cycles:    8118941 heartbeat IPC: 2.18343 cumulative IPC: 2.34021 (Simulation time: 0 hr 0 min 36 sec) 
Heartbeat CPU  0 instructions:   20000000 cycles:    8587269 heartbeat IPC: 2.13525 cumulative IPC: 2.32903 (Simulation time: 0 hr 0 min 37 sec) 
Heartbeat CPU  0 instructions:   21000002 cycles:    9046201 heartbeat IPC: 2.17898 cumulative IPC: 2.32142 (Simulation time: 0 hr 0 min 39 sec) 
Heartbeat CPU  0 instructions:   22000003 cycles:    9413474 heartbeat IPC: 2.72277 cumulative IPC: 2.33708 (Simulation time: 0 hr 0 min 41 sec) 
Heartbeat CPU  0 instructions:   23000001 cycles:    9794082 heartbeat IPC: 2.62737 cumulative IPC: 2.34836 (Simulation time: 0 hr 0 min 43 sec) 
Heartbeat CPU  0 instructions:   24000000 cycles:   10249346 heartbeat IPC: 2.19653 cumulative IPC: 2.34161 (Simulation time: 0 hr 0 min 45 sec) 
Heartbeat CPU  0 instructions:   25000002 cycles:   10704643 heartbeat IPC: 2.19637 cumulative IPC: 2.33544 (Simulation time: 0 hr 0 min 47 sec) 
Heartbeat CPU  0 instructions:   26000002 cycles:   11183277 heartbeat IPC: 2.08928 cumulative IPC: 2.32490 (Simulation time: 0 hr 0 min 49 sec) 
Heartbeat CPU  0 instructions:   27000001 cycles:   11576437 heartbeat IPC: 2.54349 cumulative IPC: 2.33232 (Simulation time: 0 hr 0 min 51 sec) 
Heartbeat CPU  0 instructions:   28000000 cycles:   11943436 heartbeat IPC: 2.72480 cumulative IPC: 2.34438 (Simulation time: 0 hr 0 min 53 sec) 
Heartbeat CPU  0 instructions:   29000001 cycles:   12379770 heartbeat IPC: 2.29182 cumulative IPC: 2.34253 (Simulation time: 0 hr 0 min 54 sec) 
Heartbeat CPU  0 instructions:   30000003 cycles:   12833332 heartbeat IPC: 2.20477 cumulative IPC: 2.33766 (Simulation time: 0 hr 0 min 56 sec) 
Heartbeat CPU  0 instructions:   31000002 cycles:   13287268 heartbeat IPC: 2.20295 cumulative IPC: 2.33306 (Simulation time: 0 hr 0 min 58 sec) 
Heartbeat CPU  0 instructions:   32000000 cycles:   13770359 heartbeat IPC: 2.07000 cumulative IPC: 2.32383 (Simulation time: 0 hr 1 min 0 sec) 
Heartbeat CPU  0 instructions:   33000003 cycles:   14171574 heartbeat IPC: 2.49244 cumulative IPC: 2.32861 (Simulation time: 0 hr 1 min 2 sec) 
Heartbeat CPU  0 instructions:   34000003 cycles:   14538581 heartbeat IPC: 2.72474 cumulative IPC: 2.33861 (Simulation time: 0 hr 1 min 4 sec) 
Heartbeat CPU  0 instructions:   35000000 cycles:   14965638 heartbeat IPC: 2.34160 cumulative IPC: 2.33869 (Simulation time: 0 hr 1 min 6 sec) 
Heartbeat CPU  0 instructions:   36000000 cycles:   15419337 heartbeat IPC: 2.20410 cumulative IPC: 2.33473 (Simulation time: 0 hr 1 min 7 sec) 
Heartbeat CPU  0 instructions:   37000000 cycles:   15873246 heartbeat IPC: 2.20308 cumulative IPC: 2.33097 (Simulation time: 0 hr 1 min 9 sec) 
Heartbeat CPU  0 instructions:   38000003 cycles:   16360948 heartbeat IPC: 2.05044 cumulative IPC: 2.32260 (Simulation time: 0 hr 1 min 11 sec) 
Heartbeat CPU  0 instructions:   39000001 cycles:   16768395 heartbeat IPC: 2.45430 cumulative IPC: 2.32580 (Simulation time: 0 hr 1 min 13 sec) 
Heartbeat CPU  0 instructions:   40000000 cycles:   17135516 heartbeat IPC: 2.72389 cumulative IPC: 2.33433 (Simulation time: 0 hr 1 min 15 sec) 
Heartbeat CPU  0 instructions:   41000003 cycles:   17555670 heartbeat IPC: 2.38009 cumulative IPC: 2.33543 (Simulation time: 0 hr 1 min 17 sec) 
Heartbeat CPU  0 instructions:   42000000 cycles:   18013600 heartbeat IPC: 2.18373 cumulative IPC: 2.33157 (Simulation time: 0 hr 1 min 18 sec) 
Heartbeat CPU  0 instructions:   43000001 cycles:   18469795 heartbeat IPC: 2.19205 cumulative IPC: 2.32813 (Simulation time: 0 hr 1 min 20 sec) 
Heartbeat CPU  0 instructions:   44000000 cycles:   18959906 heartbeat IPC: 2.04035 cumulative IPC: 2.32069 (Simulation time: 0 hr 1 min 22 sec) 
Heartbeat CPU  0 instructions:   45000002 cycles:   19372079 heartbeat IPC: 2.42617 cumulative IPC: 2.32293 (Simulation time: 0 hr 1 min 24 sec) 
Heartbeat CPU  0 instructions:   46000000 cycles:   19739333 heartbeat IPC: 2.72291 cumulative IPC: 2.33037 (Simulation time: 0 hr 1 min 26 sec) 
Heartbeat CPU  0 instructions:   47000002 cycles:   20152402 heartbeat IPC: 2.42091 cumulative IPC: 2.33223 (Simulation time: 0 hr 1 min 28 sec) 
Heartbeat CPU  0 instructions:   48000000 cycles:   20611974 heartbeat IPC: 2.17593 cumulative IPC: 2.32874 (Simulation time: 0 hr 1 min 29 sec) 
Heartbeat CPU  0 instructions:   49000003 cycles:   21068462 heartbeat IPC: 2.19064 cumulative IPC: 2.32575 (Simulation time: 0 hr 1 min 31 sec) 
Heartbeat CPU  0 instructions:   50000003 cycles:   21578957 heartbeat IPC: 1.95888 cumulative IPC: 2.31707 (Simulation time: 0 hr 1 min 33 sec) 
Heartbeat CPU  0 instructions:   51000002 cycles:   22041086 heartbeat IPC: 2.16390 cumulative IPC: 2.31386 (Simulation time: 0 hr 1 min 35 sec) 
Heartbeat CPU  0 instructions:   52000000 cycles:   22414252 heartbeat IPC: 2.67977 cumulative IPC: 2.31995 (Simulation time: 0 hr 1 min 37 sec) 
Heartbeat CPU  0 instructions:   53000001 cycles:   22781598 heartbeat IPC: 2.72223 cumulative IPC: 2.32644 (Simulation time: 0 hr 1 min 39 sec) 
Heartbeat CPU  0 instructions:   54000001 cycles:   23231021 heartbeat IPC: 2.22508 cumulative IPC: 2.32448 (Simulation time: 0 hr 1 min 41 sec) 
Heartbeat CPU  0 instructions:   55000001 cycles:   23684488 heartbeat IPC: 2.20523 cumulative IPC: 2.32220 (Simulation time: 0 hr 1 min 42 sec) 
Heartbeat CPU  0 instructions:   56000000 cycles:   24141421 heartbeat IPC: 2.18850 cumulative IPC: 2.31966 (Simulation time: 0 hr 1 min 44 sec) 
Heartbeat CPU  0 instructions:   57000003 cycles:   24626642 heartbeat IPC: 2.06092 cumulative IPC: 2.31457 (Simulation time: 0 hr 1 min 46 sec) 
Heartbeat CPU  0 instructions:   58000001 cycles:   25020211 heartbeat IPC: 2.54085 cumulative IPC: 2.31813 (Simulation time: 0 hr 1 min 48 sec) 
Heartbeat CPU  0 instructions:   59000001 cycles:   25387353 heartbeat IPC: 2.72374 cumulative IPC: 2.32399 (Simulation time: 0 hr 1 min 50 sec) 
Heartbeat CPU  0 instructions:   60000000 cycles:   25826650 heartbeat IPC: 2.27636 cumulative IPC: 2.32318 (Simulation time: 0 hr 1 min 52 sec) 
Heartbeat CPU  0 instructions:   61000000 cycles:   26282567 heartbeat IPC: 2.19338 cumulative IPC: 2.32093 (Simulation time: 0 hr 1 min 53 sec) 
Heartbeat CPU  0 instructions:   62000000 cycles:   26739993 heartbeat IPC: 2.18615 cumulative IPC: 2.31862 (Simulation time: 0 hr 1 min 55 sec) 
Heartbeat CPU  0 instructions:   63000000 cycles:   27227290 heartbeat IPC: 2.05214 cumulative IPC: 2.31385 (Simulation time: 0 hr 1 min 57 sec) 
Heartbeat CPU  0 instructions:   64000000 cycles:   27629392 heartbeat IPC: 2.48693 cumulative IPC: 2.31637 (Simulation time: 0 hr 1 min 59 sec) 
Heartbeat CPU  0 instructions:   65000000 cycles:   27996673 heartbeat IPC: 2.72271 cumulative IPC: 2.32170 (Simulation time: 0 hr 2 min 1 sec) 
Heartbeat CPU  0 instructions:   66000001 cycles:   28421801 heartbeat IPC: 2.35224 cumulative IPC: 2.32216 (Simulation time: 0 hr 2 min 3 sec) 
Heartbeat CPU  0 instructions:   67000003 cycles:   28881471 heartbeat IPC: 2.17548 cumulative IPC: 2.31983 (Simulation time: 0 hr 2 min 4 sec) 
Heartbeat CPU  0 instructions:   68000000 cycles:   29335508 heartbeat IPC: 2.20246 cumulative IPC: 2.31801 (Simulation time: 0 hr 2 min 6 sec) 
Heartbeat CPU  0 instructions:   69000001 cycles:   29822468 heartbeat IPC: 2.05356 cumulative IPC: 2.31369 (Simulation time: 0 hr 2 min 8 sec) 
Heartbeat CPU  0 instructions:   70000001 cycles:   30231634 heartbeat IPC: 2.44400 cumulative IPC: 2.31546 (Simulation time: 0 hr 2 min 10 sec) 
Heartbeat CPU  0 instructions:   71000001 cycles:   30598964 heartbeat IPC: 2.72235 cumulative IPC: 2.32034 (Simulation time: 0 hr 2 min 12 sec) 
Heartbeat CPU  0 instructions:   72000000 cycles:   31014604 heartbeat IPC: 2.40593 cumulative IPC: 2.32149 (Simulation time: 0 hr 2 min 14 sec) 
Heartbeat CPU  0 instructions:   73000000 cycles:   31471350 heartbeat IPC: 2.18940 cumulative IPC: 2.31957 (Simulation time: 0 hr 2 min 15 sec) 
Heartbeat CPU  0 instructions:   74000002 cycles:   31926663 heartbeat IPC: 2.19630 cumulative IPC: 2.31781 (Simulation time: 0 hr 2 min 17 sec) 
Heartbeat CPU  0 instructions:   75000002 cycles:   32415116 heartbeat IPC: 2.04728 cumulative IPC: 2.31374 (Simulation time: 0 hr 2 min 19 sec) 
Heartbeat CPU  0 instructions:   76000000 cycles:   32833843 heartbeat IPC: 2.38819 cumulative IPC: 2.31468 (Simulation time: 0 hr 2 min 21 sec) 
Heartbeat CPU  0 instructions:   77000003 cycles:   33201145 heartbeat IPC: 2.72256 cumulative IPC: 2.31920 (Simulation time: 0 hr 2 min 23 sec) 
Heartbeat CPU  0 instructions:   78000002 cycles:   33609323 heartbeat IPC: 2.44991 cumulative IPC: 2.32078 (Simulation time: 0 hr 2 min 25 sec) 
Heartbeat CPU  0 instructions:   79000000 cycles:   34064604 heartbeat IPC: 2.19644 cumulative IPC: 2.31912 (Simulation time: 0 hr 2 min 26 sec) 
Heartbeat CPU  0 instructions:   80000000 cycles:   34521582 heartbeat IPC: 2.18829 cumulative IPC: 2.31739 (Simulation time: 0 hr 2 min 28 sec) 
Heartbeat CPU  0 instructions:   81000001 cycles:   34980585 heartbeat IPC: 2.17864 cumulative IPC: 2.31557 (Simulation time: 0 hr 2 min 30 sec) 
Heartbeat CPU  0 instructions:   82000001 cycles:   35467293 heartbeat IPC: 2.05462 cumulative IPC: 2.31199 (Simulation time: 0 hr 2 min 32 sec) 
Heartbeat CPU  0 instructions:   83000001 cycles:   35838817 heartbeat IPC: 2.69162 cumulative IPC: 2.31592 (Simulation time: 0 hr 2 min 34 sec) 
Heartbeat CPU  0 instructions:   84000000 cycles:   36206997 heartbeat IPC: 2.71606 cumulative IPC: 2.31999 (Simulation time: 0 hr 2 min 36 sec) 
Heartbeat CPU  0 instructions:   85000003 cycles:   36662532 heartbeat IPC: 2.19523 cumulative IPC: 2.31844 (Simulation time: 0 hr 2 min 37 sec) 
Heartbeat CPU  0 instructions:   86000001 cycles:   37118112 heartbeat IPC: 2.19500 cumulative IPC: 2.31693 (Simulation time: 0 hr 2 min 39 sec) 
Heartbeat CPU  0 instructions:   87000003 cycles:   37575233 heartbeat IPC: 2.18761 cumulative IPC: 2.31536 (Simulation time: 0 hr 2 min 41 sec) 
Heartbeat CPU  0 instructions:   88000000 cycles:   38064781 heartbeat IPC: 2.04269 cumulative IPC: 2.31185 (Simulation time: 0 hr 2 min 43 sec) 
Heartbeat CPU  0 instructions:   89000002 cycles:   38468053 heartbeat IPC: 2.47972 cumulative IPC: 2.31361 (Simulation time: 0 hr 2 min 45 sec) 
Heartbeat CPU  0 instructions:   90000002 cycles:   38835442 heartbeat IPC: 2.72191 cumulative IPC: 2.31747 (Simulation time: 0 hr 2 min 47 sec) 
Heartbeat CPU  0 instructions:   91000002 cycles:   39256392 heartbeat IPC: 2.37558 cumulative IPC: 2.31809 (Simulation time: 0 hr 2 min 48 sec) 
Heartbeat CPU  0 instructions:   92000000 cycles:   39709953 heartbeat IPC: 2.20477 cumulative IPC: 2.31680 (Simulation time: 0 hr 2 min 50 sec) 
Heartbeat CPU  0 instructions:   93000002 cycles:   40166508 heartbeat IPC: 2.19032 cumulative IPC: 2.31536 (Simulation time: 0 hr 2 min 52 sec) 
Heartbeat CPU  0 instructions:   94000001 cycles:   40654939 heartbeat IPC: 2.04737 cumulative IPC: 2.31214 (Simulation time: 0 hr 2 min 54 sec) 
Heartbeat CPU  0 instructions:   95000003 cycles:   41027434 heartbeat IPC: 2.68461 cumulative IPC: 2.31552 (Simulation time: 0 hr 2 min 56 sec) 
Heartbeat CPU  0 instructions:   96000000 cycles:   41394675 heartbeat IPC: 2.72300 cumulative IPC: 2.31914 (Simulation time: 0 hr 2 min 58 sec) 
Heartbeat CPU  0 instructions:   97000001 cycles:   41840645 heartbeat IPC: 2.24231 cumulative IPC: 2.31832 (Simulation time: 0 hr 2 min 59 sec) 
Heartbeat CPU  0 instructions:   98000002 cycles:   42297080 heartbeat IPC: 2.19089 cumulative IPC: 2.31694 (Simulation time: 0 hr 3 min 1 sec) 
Heartbeat CPU  0 instructions:   99000003 cycles:   42783145 heartbeat IPC: 2.05734 cumulative IPC: 2.31400 (Simulation time: 0 hr 3 min 3 sec) 
Heartbeat CPU  0 instructions:  100000000 cycles:   43327156 heartbeat IPC: 1.83819 cumulative IPC: 2.30802 (Simulation time: 0 hr 3 min 5 sec) 

Warmup complete CPU  0 instructions:  100000001 cycles:   43327157 (Simulation time: 0 hr 3 min 5 sec) 

Heartbeat CPU  0 instructions:  101000001 cycles:   44131219 heartbeat IPC: 1.24368 cumulative IPC: 1.24369 (Simulation time: 0 hr 3 min 7 sec) 
Heartbeat CPU  0 instructions:  102000003 cycles:   44727367 heartbeat IPC: 1.67744 cumulative IPC: 1.42836 (Simulation time: 0 hr 3 min 10 sec) 
Heartbeat CPU  0 instructions:  103000000 cycles:   45444420 heartbeat IPC: 1.39459 cumulative IPC: 1.41692 (Simulation time: 0 hr 3 min 12 sec) 
Heartbeat CPU  0 instructions:  104000000 cycles:   46419914 heartbeat IPC: 1.02512 cumulative IPC: 1.29334 (Simulation time: 0 hr 3 min 14 sec) 
Heartbeat CPU  0 instructions:  105000000 cycles:   47364758 heartbeat IPC: 1.05838 cumulative IPC: 1.23836 (Simulation time: 0 hr 3 min 17 sec) 
Heartbeat CPU  0 instructions:  106000003 cycles:   48033909 heartbeat IPC: 1.49444 cumulative IPC: 1.27476 (Simulation time: 0 hr 3 min 19 sec) 
Heartbeat CPU  0 instructions:  107000003 cycles:   48623386 heartbeat IPC: 1.69642 cumulative IPC: 1.32170 (Simulation time: 0 hr 3 min 21 sec) 
Heartbeat CPU  0 instructions:  108000000 cycles:   49523116 heartbeat IPC: 1.11144 cumulative IPC: 1.29116 (Simulation time: 0 hr 3 min 24 sec) 
Heartbeat CPU  0 instructions:  109000000 cycles:   50494696 heartbeat IPC: 1.02925 cumulative IPC: 1.25566 (Simulation time: 0 hr 3 min 26 sec) 
Heartbeat CPU  0 instructions:  110000001 cycles:   51279604 heartbeat IPC: 1.27404 cumulative IPC: 1.25747 (Simulation time: 0 hr 3 min 28 sec) 
Heartbeat CPU  0 instructions:  111000002 cycles:   51869314 heartbeat IPC: 1.69575 cumulative IPC: 1.28773 (Simulation time: 0 hr 3 min 31 sec) 
Heartbeat CPU  0 instructions:  112000000 cycles:   52598318 heartbeat IPC: 1.37173 cumulative IPC: 1.29434 (Simulation time: 0 hr 3 min 33 sec) 
Heartbeat CPU  0 instructions:  113000003 cycles:   53532809 heartbeat IPC: 1.07010 cumulative IPC: 1.27380 (Simulation time: 0 hr 3 min 35 sec) 
Heartbeat CPU  0 instructions:  114000001 cycles:   54451437 heartbeat IPC: 1.08858 cumulative IPC: 1.25851 (Simulation time: 0 hr 3 min 38 sec) 
Heartbeat CPU  0 instructions:  115000000 cycles:   55289728 heartbeat IPC: 1.19290 cumulative IPC: 1.25391 (Simulation time: 0 hr 3 min 40 sec) 
Heartbeat CPU  0 instructions:  116000000 cycles:   55880345 heartbeat IPC: 1.69314 cumulative IPC: 1.27458 (Simulation time: 0 hr 3 min 43 sec) 
Heartbeat CPU  0 instructions:  117000000 cycles:   56802889 heartbeat IPC: 1.08396 cumulative IPC: 1.26153 (Simulation time: 0 hr 3 min 45 sec) 
Heartbeat CPU  0 instructions:  118000003 cycles:   57731715 heartbeat IPC: 1.07663 cumulative IPC: 1.24960 (Simulation time: 0 hr 3 min 47 sec) 
Heartbeat CPU  0 instructions:  119000002 cycles:   58697122 heartbeat IPC: 1.03583 cumulative IPC: 1.23618 (Simulation time: 0 hr 3 min 50 sec) 
Heartbeat CPU  0 instructions:  120000000 cycles:   59792027 heartbeat IPC: 0.91332 cumulative IPC: 1.21471 (Simulation time: 0 hr 3 min 52 sec) 
Heartbeat CPU  0 instructions:  121000000 cycles:   60612970 heartbeat IPC: 1.21811 cumulative IPC: 1.21487 (Simulation time: 0 hr 3 min 54 sec) 
Heartbeat CPU  0 instructions:  122000001 cycles:   61206067 heartbeat IPC: 1.68607 cumulative IPC: 1.23050 (Simulation time: 0 hr 3 min 57 sec) 
Heartbeat CPU  0 instructions:  123000001 cycles:   61927137 heartbeat IPC: 1.38683 cumulative IPC: 1.23656 (Simulation time: 0 hr 3 min 59 sec) 
Heartbeat CPU  0 instructions:  124000000 cycles:   62876973 heartbeat IPC: 1.05281 cumulative IPC: 1.22763 (Simulation time: 0 hr 4 min 2 sec) 
Heartbeat CPU  0 instructions:  125000001 cycles:   63812681 heartbeat IPC: 1.06871 cumulative IPC: 1.22037 (Simulation time: 0 hr 4 min 4 sec) 
Heartbeat CPU  0 instructions:  126000003 cycles:   64796878 heartbeat IPC: 1.01606 cumulative IPC: 1.21101 (Simulation time: 0 hr 4 min 6 sec) 
Heartbeat CPU  0 instructions:  127000000 cycles:   65741392 heartbeat IPC: 1.05874 cumulative IPC: 1.20459 (Simulation time: 0 hr 4 min 9 sec) 
Heartbeat CPU  0 instructions:  128000000 cycles:   66352093 heartbeat IPC: 1.63746 cumulative IPC: 1.21607 (Simulation time: 0 hr 4 min 11 sec) 
Heartbeat CPU  0 instructions:  129000000 cycles:   66978403 heartbeat IPC: 1.59665 cumulative IPC: 1.22615 (Simulation time: 0 hr 4 min 13 sec) 
Heartbeat CPU  0 instructions:  130000000 cycles:   67933678 heartbeat IPC: 1.04682 cumulative IPC: 1.21919 (Simulation time: 0 hr 4 min 16 sec) 
Heartbeat CPU  0 instructions:  131000002 cycles:   68869172 heartbeat IPC: 1.06896 cumulative IPC: 1.21369 (Simulation time: 0 hr 4 min 18 sec) 
Heartbeat CPU  0 instructions:  132000000 cycles:   69892614 heartbeat IPC: 0.97709 cumulative IPC: 1.20457 (Simulation time: 0 hr 4 min 20 sec) 
Heartbeat CPU  0 instructions:  133000000 cycles:   70650282 heartbeat IPC: 1.31984 cumulative IPC: 1.20777 (Simulation time: 0 hr 4 min 23 sec) 
Heartbeat CPU  0 instructions:  134000002 cycles:   71244861 heartbeat IPC: 1.68187 cumulative IPC: 1.21787 (Simulation time: 0 hr 4 min 25 sec) 
Heartbeat CPU  0 instructions:  135000001 cycles:   72032607 heartbeat IPC: 1.26944 cumulative IPC: 1.21928 (Simulation time: 0 hr 4 min 27 sec) 
Heartbeat CPU  0 instructions:  136000000 cycles:   72964255 heartbeat IPC: 1.07337 cumulative IPC: 1.21469 (Simulation time: 0 hr 4 min 30 sec) 
Heartbeat CPU  0 instructions:  137000002 cycles:   73946211 heartbeat IPC: 1.01838 cumulative IPC: 1.20840 (Simulation time: 0 hr 4 min 32 sec) 
Heartbeat CPU  0 instructions:  138000002 cycles:   74668672 heartbeat IPC: 1.38416 cumulative IPC: 1.21245 (Simulation time: 0 hr 4 min 34 sec) 
Heartbeat CPU  0 instructions:  139000002 cycles:   75261785 heartbeat IPC: 1.68602 cumulative IPC: 1.22124 (Simulation time: 0 hr 4 min 37 sec) 
Heartbeat CPU  0 instructions:  140000000 cycles:   76078790 heartbeat IPC: 1.22398 cumulative IPC: 1.22131 (Simulation time: 0 hr 4 min 39 sec) 
Heartbeat CPU  0 instructions:  141000000 cycles:   77001168 heartbeat IPC: 1.08415 cumulative IPC: 1.21756 (Simulation time: 0 hr 4 min 41 sec) 
Heartbeat CPU  0 instructions:  142000001 cycles:   77947666 heartbeat IPC: 1.05653 cumulative IPC: 1.21315 (Simulation time: 0 hr 4 min 44 sec) 
Heartbeat CPU  0 instructions:  143000003 cycles:   78603621 heartbeat IPC: 1.52450 cumulative IPC: 1.21894 (Simulation time: 0 hr 4 min 46 sec) 
Heartbeat CPU  0 instructions:  144000000 cycles:   79194175 heartbeat IPC: 1.69332 cumulative IPC: 1.22675 (Simulation time: 0 hr 4 min 48 sec) 
Heartbeat CPU  0 instructions:  145000002 cycles:   80089825 heartbeat IPC: 1.11651 cumulative IPC: 1.22407 (Simulation time: 0 hr 4 min 51 sec) 
Heartbeat CPU  0 instructions:  146000002 cycles:   81034494 heartbeat IPC: 1.05857 cumulative IPC: 1.21992 (Simulation time: 0 hr 4 min 53 sec) 
Heartbeat CPU  0 instructions:  147000002 cycles:   81893194 heartbeat IPC: 1.16455 cumulative IPC: 1.21869 (Simulation time: 0 hr 4 min 56 sec) 
Heartbeat CPU  0 instructions:  148000000 cycles:   82484562 heartbeat IPC: 1.69099 cumulative IPC: 1.22582 (Simulation time: 0 hr 4 min 58 sec) 
Heartbeat CPU  0 instructions:  149000000 cycles:   83152188 heartbeat IPC: 1.49784 cumulative IPC: 1.23038 (Simulation time: 0 hr 5 min 0 sec) 
Heartbeat CPU  0 instructions:  150000003 cycles:   84075942 heartbeat IPC: 1.08254 cumulative IPC: 1.22703 (Simulation time: 0 hr 5 min 3 sec) 
Heartbeat CPU  0 instructions:  151000002 cycles:   85105640 heartbeat IPC: 0.97116 cumulative IPC: 1.22072 (Simulation time: 0 hr 5 min 5 sec) 
Heartbeat CPU  0 instructions:  152000000 cycles:   85998235 heartbeat IPC: 1.12033 cumulative IPC: 1.21862 (Simulation time: 0 hr 5 min 7 sec) 
Heartbeat CPU  0 instructions:  153000001 cycles:   86719414 heartbeat IPC: 1.38662 cumulative IPC: 1.22142 (Simulation time: 0 hr 5 min 10 sec) 
Heartbeat CPU  0 instructions:  154000003 cycles:   87312209 heartbeat IPC: 1.68693 cumulative IPC: 1.22769 (Simulation time: 0 hr 5 min 12 sec) 
Heartbeat CPU  0 instructions:  155000003 cycles:   88088598 heartbeat IPC: 1.28801 cumulative IPC: 1.22874 (Simulation time: 0 hr 5 min 14 sec) 
Heartbeat CPU  0 instructions:  156000000 cycles:   89010654 heartbeat IPC: 1.08453 cumulative IPC: 1.22583 (Simulation time: 0 hr 5 min 17 sec) 
Heartbeat CPU  0 instructions:  157000003 cycles:   89941138 heartbeat IPC: 1.07471 cumulative IPC: 1.22281 (Simulation time: 0 hr 5 min 19 sec) 
Heartbeat CPU  0 instructions:  158000002 cycles:   90569159 heartbeat IPC: 1.59230 cumulative IPC: 1.22772 (Simulation time: 0 hr 5 min 21 sec) 
Heartbeat CPU  0 instructions:  159000000 cycles:   91158865 heartbeat IPC: 1.69576 cumulative IPC: 1.23349 (Simulation time: 0 hr 5 min 24 sec) 
Heartbeat CPU  0 instructions:  160000000 cycles:   92090995 heartbeat IPC: 1.07281 cumulative IPC: 1.23042 (Simulation time: 0 hr 5 min 26 sec) 
Heartbeat CPU  0 instructions:  161000000 cycles:   93049708 heartbeat IPC: 1.04307 cumulative IPC: 1.22681 (Simulation time: 0 hr 5 min 28 sec) 
Heartbeat CPU  0 instructions:  162000003 cycles:   93792875 heartbeat IPC: 1.34560 cumulative IPC: 1.22856 (Simulation time: 0 hr 5 min 31 sec) 
Heartbeat CPU  0 instructions:  163000002 cycles:   94383164 heartbeat IPC: 1.69408 cumulative IPC: 1.23394 (Simulation time: 0 hr 5 min 33 sec) 
Heartbeat CPU  0 instructions:  164000000 cycles:   95140381 heartbeat IPC: 1.32062 cumulative IPC: 1.23521 (Simulation time: 0 hr 5 min 35 sec) 
Heartbeat CPU  0 instructions:  165000000 cycles:   96056094 heartbeat IPC: 1.09205 cumulative IPC: 1.23272 (Simulation time: 0 hr 5 min 38 sec) 
Heartbeat CPU  0 instructions:  166000002 cycles:   96973850 heartbeat IPC: 1.08962 cumulative IPC: 1.23027 (Simulation time: 0 hr 5 min 40 sec) 
Heartbeat CPU  0 instructions:  167000001 cycles:   97603047 heartbeat IPC: 1.58933 cumulative IPC: 1.23443 (Simulation time: 0 hr 5 min 42 sec) 
Heartbeat CPU  0 instructions:  168000000 cycles:   98192523 heartbeat IPC: 1.69642 cumulative IPC: 1.23940 (Simulation time: 0 hr 5 min 45 sec) 
Heartbeat CPU  0 instructions:  169000000 cycles:   99113077 heartbeat IPC: 1.08630 cumulative IPC: 1.23687 (Simulation time: 0 hr 5 min 47 sec) 
Heartbeat CPU  0 instructions:  170000002 cycles:  100074290 heartbeat IPC: 1.04035 cumulative IPC: 1.23354 (Simulation time: 0 hr 5 min 49 sec) 
Heartbeat CPU  0 instructions:  171000003 cycles:  100822723 heartbeat IPC: 1.33613 cumulative IPC: 1.23488 (Simulation time: 0 hr 5 min 52 sec) 
Heartbeat CPU  0 instructions:  172000000 cycles:  101415706 heartbeat IPC: 1.68638 cumulative IPC: 1.23949 (Simulation time: 0 hr 5 min 54 sec) 
Heartbeat CPU  0 instructions:  173000000 cycles:  102169325 heartbeat IPC: 1.32693 cumulative IPC: 1.24061 (Simulation time: 0 hr 5 min 56 sec) 
Heartbeat CPU  0 instructions:  174000000 cycles:  103091690 heartbeat IPC: 1.08417 cumulative IPC: 1.23819 (Simulation time: 0 hr 5 min 59 sec) 
Heartbeat CPU  0 instructions:  175000002 cycles:  104012413 heartbeat IPC: 1.08611 cumulative IPC: 1.23589 (Simulation time: 0 hr 6 min 1 sec) 
Heartbeat CPU  0 instructions:  176000000 cycles:  104644365 heartbeat IPC: 1.58240 cumulative IPC: 1.23946 (Simulation time: 0 hr 6 min 3 sec) 
Heartbeat CPU  0 instructions:  177000003 cycles:  105233666 heartbeat IPC: 1.69693 cumulative IPC: 1.24381 (Simulation time: 0 hr 6 min 6 sec) 
Heartbeat CPU  0 instructions:  178000003 cycles:  106144168 heartbeat IPC: 1.09830 cumulative IPC: 1.24170 (Simulation time: 0 hr 6 min 8 sec) 
Heartbeat CPU  0 instructions:  179000003 cycles:  107101099 heartbeat IPC: 1.04501 cumulative IPC: 1.23875 (Simulation time: 0 hr 6 min 10 sec) 
Heartbeat CPU  0 instructions:  180000000 cycles:  107852142 heartbeat IPC: 1.33148 cumulative IPC: 1.23983 (Simulation time: 0 hr 6 min 13 sec) 
Heartbeat CPU  0 instructions:  181000002 cycles:  108445692 heartbeat IPC: 1.68478 cumulative IPC: 1.24389 (Simulation time: 0 hr 6 min 15 sec) 
Heartbeat CPU  0 instructions:  182000002 cycles:  109189315 heartbeat IPC: 1.34477 cumulative IPC: 1.24502 (Simulation time: 0 hr 6 min 17 sec) 
Heartbeat CPU  0 instructions:  183000002 cycles:  110088484 heartbeat IPC: 1.11214 cumulative IPC: 1.24323 (Simulation time: 0 hr 6 min 20 sec) 
Heartbeat CPU  0 instructions:  184000000 cycles:  111009155 heartbeat IPC: 1.08616 cumulative IPC: 1.24110 (Simulation time: 0 hr 6 min 22 sec) 
Heartbeat CPU  0 instructions:  185000003 cycles:  111646713 heartbeat IPC: 1.56849 cumulative IPC: 1.24415 (Simulation time: 0 hr 6 min 24 sec) 
Heartbeat CPU  0 instructions:  186000001 cycles:  112235622 heartbeat IPC: 1.69805 cumulative IPC: 1.24803 (Simulation time: 0 hr 6 min 27 sec) 
Heartbeat CPU  0 instructions:  187000002 cycles:  113144206 heartbeat IPC: 1.10061 cumulative IPC: 1.24611 (Simulation time: 0 hr 6 min 29 sec) 
Heartbeat CPU  0 instructions:  188000000 cycles:  114094566 heartbeat IPC: 1.05223 cumulative IPC: 1.24351 (Simulation time: 0 hr 6 min 31 sec) 
Heartbeat CPU  0 instructions:  189000001 cycles:  114854941 heartbeat IPC: 1.31514 cumulative IPC: 1.24427 (Simulation time: 0 hr 6 min 34 sec) 
Heartbeat CPU  0 instructions:  190000001 cycles:  115446214 heartbeat IPC: 1.69127 cumulative IPC: 1.24794 (Simulation time: 0 hr 6 min 36 sec) 
Heartbeat CPU  0 instructions:  191000003 cycles:  116187586 heartbeat IPC: 1.34885 cumulative IPC: 1.24896 (Simulation time: 0 hr 6 min 38 sec) 
Heartbeat CPU  0 instructions:  192000000 cycles:  117090368 heartbeat IPC: 1.10768 cumulative IPC: 1.24723 (Simulation time: 0 hr 6 min 41 sec) 
Heartbeat CPU  0 instructions:  193000002 cycles:  118017239 heartbeat IPC: 1.07890 cumulative IPC: 1.24515 (Simulation time: 0 hr 6 min 43 sec) 
Heartbeat CPU  0 instructions:  194000002 cycles:  118655738 heartbeat IPC: 1.56617 cumulative IPC: 1.24787 (Simulation time: 0 hr 6 min 45 sec) 
Heartbeat CPU  0 instructions:  195000003 cycles:  119245238 heartbeat IPC: 1.69635 cumulative IPC: 1.25135 (Simulation time: 0 hr 6 min 48 sec) 
Heartbeat CPU  0 instructions:  196000000 cycles:  120150229 heartbeat IPC: 1.10498 cumulative IPC: 1.24962 (Simulation time: 0 hr 6 min 50 sec) 
Heartbeat CPU  0 instructions:  197000002 cycles:  121110421 heartbeat IPC: 1.04146 cumulative IPC: 1.24705 (Simulation time: 0 hr 6 min 52 sec) 
Heartbeat CPU  0 instructions:  198000001 cycles:  121864147 heartbeat IPC: 1.32674 cumulative IPC: 1.24782 (Simulation time: 0 hr 6 min 55 sec) 
Heartbeat CPU  0 instructions:  199000001 cycles:  122456986 heartbeat IPC: 1.68680 cumulative IPC: 1.25111 (Simulation time: 0 hr 6 min 57 sec) 
Heartbeat CPU  0 instructions:  200000000 cycles:  123188633 heartbeat IPC: 1.36678 cumulative IPC: 1.25217 (Simulation time: 0 hr 7 min 0 sec) 
Heartbeat CPU  0 instructions:  201000003 cycles:  124084414 heartbeat IPC: 1.11635 cumulative IPC: 1.25066 (Simulation time: 0 hr 7 min 2 sec) 
Heartbeat CPU  0 instructions:  202000001 cycles:  124999562 heartbeat IPC: 1.09272 cumulative IPC: 1.24889 (Simulation time: 0 hr 7 min 4 sec) 
Heartbeat CPU  0 instructions:  203000001 cycles:  125649573 heartbeat IPC: 1.53844 cumulative IPC: 1.25118 (Simulation time: 0 hr 7 min 7 sec) 
Heartbeat CPU  0 instructions:  204000000 cycles:  126239201 heartbeat IPC: 1.69598 cumulative IPC: 1.25434 (Simulation time: 0 hr 7 min 9 sec) 
Heartbeat CPU  0 instructions:  205000002 cycles:  127120582 heartbeat IPC: 1.13459 cumulative IPC: 1.25308 (Simulation time: 0 hr 7 min 11 sec) 
Heartbeat CPU  0 instructions:  206000001 cycles:  128075384 heartbeat IPC: 1.04734 cumulative IPC: 1.25076 (Simulation time: 0 hr 7 min 14 sec) 
Heartbeat CPU  0 instructions:  207000000 cycles:  128841951 heartbeat IPC: 1.30452 cumulative IPC: 1.25125 (Simulation time: 0 hr 7 min 16 sec) 
Heartbeat CPU  0 instructions:  208000000 cycles:  129432919 heartbeat IPC: 1.69214 cumulative IPC: 1.25427 (Simulation time: 0 hr 7 min 18 sec) 
Heartbeat CPU  0 instructions:  209000001 cycles:  130154476 heartbeat IPC: 1.38589 cumulative IPC: 1.25537 (Simulation time: 0 hr 7 min 21 sec) 
Heartbeat CPU  0 instructions:  210000000 cycles:  131046137 heartbeat IPC: 1.12150 cumulative IPC: 1.25400 (Simulation time: 0 hr 7 min 23 sec) 
Heartbeat CPU  0 instructions:  211000003 cycles:  132055424 heartbeat IPC: 0.99080 cumulative IPC: 1.25101 (Simulation time: 0 hr 7 min 25 sec) 
Heartbeat CPU  0 instructions:  212000000 cycles:  132897180 heartbeat IPC: 1.18799 cumulative IPC: 1.25042 (Simulation time: 0 hr 7 min 28 sec) 
Heartbeat CPU  0 instructions:  213000002 cycles:  133551399 heartbeat IPC: 1.52854 cumulative IPC: 1.25243 (Simulation time: 0 hr 7 min 30 sec) 
Heartbeat CPU  0 instructions:  214000000 cycles:  134141899 heartbeat IPC: 1.69348 cumulative IPC: 1.25530 (Simulation time: 0 hr 7 min 32 sec) 
Heartbeat CPU  0 instructions:  215000002 cycles:  135027269 heartbeat IPC: 1.12947 cumulative IPC: 1.25409 (Simulation time: 0 hr 7 min 35 sec) 
Heartbeat CPU  0 instructions:  216000000 cycles:  135979671 heartbeat IPC: 1.04997 cumulative IPC: 1.25199 (Simulation time: 0 hr 7 min 37 sec) 
Heartbeat CPU  0 instructions:  217000001 cycles:  136736563 heartbeat IPC: 1.32119 cumulative IPC: 1.25255 (Simulation time: 0 hr 7 min 39 sec) 
Heartbeat CPU  0 instructions:  218000000 cycles:  137327660 heartbeat IPC: 1.69177 cumulative IPC: 1.25531 (Simulation time: 0 hr 7 min 42 sec) 
Heartbeat CPU  0 instructions:  219000000 cycles:  138058684 heartbeat IPC: 1.36794 cumulative IPC: 1.25618 (Simulation time: 0 hr 7 min 44 sec) 
Heartbeat CPU  0 instructions:  220000000 cycles:  138950058 heartbeat IPC: 1.12186 cumulative IPC: 1.25493 (Simulation time: 0 hr 7 min 46 sec) 
Heartbeat CPU  0 instructions:  221000001 cycles:  139870130 heartbeat IPC: 1.08687 cumulative IPC: 1.25333 (Simulation time: 0 hr 7 min 49 sec) 
Heartbeat CPU  0 instructions:  222000003 cycles:  140510905 heartbeat IPC: 1.56061 cumulative IPC: 1.25535 (Simulation time: 0 hr 7 min 51 sec) 
Heartbeat CPU  0 instructions:  223000000 cycles:  141100300 heartbeat IPC: 1.69665 cumulative IPC: 1.25801 (Simulation time: 0 hr 7 min 53 sec) 
Heartbeat CPU  0 instructions:  224000000 cycles:  141993838 heartbeat IPC: 1.11915 cumulative IPC: 1.25676 (Simulation time: 0 hr 7 min 56 sec) 
Heartbeat CPU  0 instructions:  225000001 cycles:  142942292 heartbeat IPC: 1.05435 cumulative IPC: 1.25483 (Simulation time: 0 hr 7 min 58 sec) 
Heartbeat CPU  0 instructions:  226000002 cycles:  143697536 heartbeat IPC: 1.32408 cumulative IPC: 1.25535 (Simulation time: 0 hr 8 min 0 sec) 
Heartbeat CPU  0 instructions:  227000001 cycles:  144289085 heartbeat IPC: 1.69048 cumulative IPC: 1.25790 (Simulation time: 0 hr 8 min 3 sec) 
Heartbeat CPU  0 instructions:  228000000 cycles:  145021840 heartbeat IPC: 1.36471 cumulative IPC: 1.25867 (Simulation time: 0 hr 8 min 5 sec) 
Heartbeat CPU  0 instructions:  229000003 cycles:  145920475 heartbeat IPC: 1.11280 cumulative IPC: 1.25739 (Simulation time: 0 hr 8 min 7 sec) 
Heartbeat CPU  0 instructions:  230000001 cycles:  146838736 heartbeat IPC: 1.08901 cumulative IPC: 1.25590 (Simulation time: 0 hr 8 min 10 sec) 
Heartbeat CPU  0 instructions:  231000002 cycles:  147478610 heartbeat IPC: 1.56281 cumulative IPC: 1.25778 (Simulation time: 0 hr 8 min 12 sec) 
Heartbeat CPU  0 instructions:  232000000 cycles:  148067642 heartbeat IPC: 1.69770 cumulative IPC: 1.26026 (Simulation time: 0 hr 8 min 14 sec) 
Heartbeat CPU  0 instructions:  233000002 cycles:  148957787 heartbeat IPC: 1.12341 cumulative IPC: 1.25910 (Simulation time: 0 hr 8 min 17 sec) 
Heartbeat CPU  0 instructions:  234000002 cycles:  149908961 heartbeat IPC: 1.05133 cumulative IPC: 1.25725 (Simulation time: 0 hr 8 min 19 sec) 
Heartbeat CPU  0 instructions:  235000000 cycles:  150656711 heartbeat IPC: 1.33734 cumulative IPC: 1.25781 (Simulation time: 0 hr 8 min 21 sec) 
Heartbeat CPU  0 instructions:  236000000 cycles:  151247879 heartbeat IPC: 1.69157 cumulative IPC: 1.26018 (Simulation time: 0 hr 8 min 24 sec) 
Heartbeat CPU  0 instructions:  237000003 cycles:  151977727 heartbeat IPC: 1.37015 cumulative IPC: 1.26092 (Simulation time: 0 hr 8 min 26 sec) 
Heartbeat CPU  0 instructions:  238000000 cycles:  152871847 heartbeat IPC: 1.11841 cumulative IPC: 1.25976 (Simulation time: 0 hr 8 min 28 sec) 
Heartbeat CPU  0 instructions:  239000000 cycles:  153780013 heartbeat IPC: 1.10112 cumulative IPC: 1.25846 (Simulation time: 0 hr 8 min 31 sec) 
Heartbeat CPU  0 instructions:  240000000 cycles:  154423732 heartbeat IPC: 1.55347 cumulative IPC: 1.26016 (Simulation time: 0 hr 8 min 33 sec) 
Heartbeat CPU  0 instructions:  241000000 cycles:  155011676 heartbeat IPC: 1.70084 cumulative IPC: 1.26248 (Simulation time: 0 hr 8 min 35 sec) 
Heartbeat CPU  0 instructions:  242000002 cycles:  155895005 heartbeat IPC: 1.13208 cumulative IPC: 1.26146 (Simulation time: 0 hr 8 min 38 sec) 
Heartbeat CPU  0 instructions:  243000001 cycles:  156840197 heartbeat IPC: 1.05799 cumulative IPC: 1.25977 (Simulation time: 0 hr 8 min 40 sec) 
Heartbeat CPU  0 instructions:  244000000 cycles:  157599959 heartbeat IPC: 1.31620 cumulative IPC: 1.26014 (Simulation time: 0 hr 8 min 42 sec) 
Heartbeat CPU  0 instructions:  245000001 cycles:  158192601 heartbeat IPC: 1.68736 cumulative IPC: 1.26235 (Simulation time: 0 hr 8 min 45 sec) 
Heartbeat CPU  0 instructions:  246000000 cycles:  158916519 heartbeat IPC: 1.38137 cumulative IPC: 1.26309 (Simulation time: 0 hr 8 min 47 sec) 
Heartbeat CPU  0 instructions:  247000001 cycles:  159807571 heartbeat IPC: 1.12227 cumulative IPC: 1.26201 (Simulation time: 0 hr 8 min 49 sec) 
Heartbeat CPU  0 instructions:  248000000 cycles:  160727813 heartbeat IPC: 1.08667 cumulative IPC: 1.26064 (Simulation time: 0 hr 8 min 52 sec) 
Heartbeat CPU  0 instructions:  249000003 cycles:  161375154 heartbeat IPC: 1.54479 cumulative IPC: 1.26220 (Simulation time: 0 hr 8 min 54 sec) 
Heartbeat CPU  0 instructions:  250000003 cycles:  161966164 heartbeat IPC: 1.69202 cumulative IPC: 1.26434 (Simulation time: 0 hr 8 min 56 sec) 
Heartbeat CPU  0 instructions:  251000002 cycles:  162854652 heartbeat IPC: 1.12551 cumulative IPC: 1.26331 (Simulation time: 0 hr 8 min 59 sec) 
Heartbeat CPU  0 instructions:  252000000 cycles:  163807142 heartbeat IPC: 1.04988 cumulative IPC: 1.26162 (Simulation time: 0 hr 9 min 1 sec) 
Heartbeat CPU  0 instructions:  253000002 cycles:  164563188 heartbeat IPC: 1.32267 cumulative IPC: 1.26200 (Simulation time: 0 hr 9 min 3 sec) 
Heartbeat CPU  0 instructions:  254000003 cycles:  165153817 heartbeat IPC: 1.69311 cumulative IPC: 1.26409 (Simulation time: 0 hr 9 min 6 sec) 
Heartbeat CPU  0 instructions:  255000002 cycles:  165887162 heartbeat IPC: 1.36361 cumulative IPC: 1.26469 (Simulation time: 0 hr 9 min 8 sec) 
Heartbeat CPU  0 instructions:  256000000 cycles:  166787654 heartbeat IPC: 1.11050 cumulative IPC: 1.26356 (Simulation time: 0 hr 9 min 10 sec) 
Heartbeat CPU  0 instructions:  257000001 cycles:  167698972 heartbeat IPC: 1.09731 cumulative IPC: 1.26234 (Simulation time: 0 hr 9 min 13 sec) 
Heartbeat CPU  0 instructions:  258000000 cycles:  168335568 heartbeat IPC: 1.57085 cumulative IPC: 1.26391 (Simulation time: 0 hr 9 min 15 sec) 
Heartbeat CPU  0 instructions:  259000000 cycles:  168924382 heartbeat IPC: 1.69833 cumulative IPC: 1.26595 (Simulation time: 0 hr 9 min 17 sec) 
Heartbeat CPU  0 instructions:  260000000 cycles:  169829186 heartbeat IPC: 1.10521 cumulative IPC: 1.26480 (Simulation time: 0 hr 9 min 20 sec) 
Heartbeat CPU  0 instructions:  261000003 cycles:  170767847 heartbeat IPC: 1.06535 cumulative IPC: 1.26333 (Simulation time: 0 hr 9 min 22 sec) 
Heartbeat CPU  0 instructions:  262000001 cycles:  171515204 heartbeat IPC: 1.33805 cumulative IPC: 1.26377 (Simulation time: 0 hr 9 min 24 sec) 
Heartbeat CPU  0 instructions:  263000002 cycles:  172107367 heartbeat IPC: 1.68873 cumulative IPC: 1.26572 (Simulation time: 0 hr 9 min 27 sec) 
Heartbeat CPU  0 instructions:  264000000 cycles:  172856792 heartbeat IPC: 1.33435 cumulative IPC: 1.26612 (Simulation time: 0 hr 9 min 29 sec) 
Heartbeat CPU  0 instructions:  265000000 cycles:  173788189 heartbeat IPC: 1.07366 cumulative IPC: 1.26475 (Simulation time: 0 hr 9 min 31 sec) 
Heartbeat CPU  0 instructions:  266000000 cycles:  174778378 heartbeat IPC: 1.00991 cumulative IPC: 1.26283 (Simulation time: 0 hr 9 min 34 sec) 
Heartbeat CPU  0 instructions:  267000002 cycles:  175596402 heartbeat IPC: 1.22246 cumulative IPC: 1.26258 (Simulation time: 0 hr 9 min 36 sec) 
Heartbeat CPU  0 instructions:  268000000 cycles:  176218193 heartbeat IPC: 1.60825 cumulative IPC: 1.26419 (Simulation time: 0 hr 9 min 38 sec) 
Heartbeat CPU  0 instructions:  269000002 cycles:  176806581 heartbeat IPC: 1.69956 cumulative IPC: 1.26611 (Simulation time: 0 hr 9 min 41 sec) 
Heartbeat CPU  0 instructions:  270000003 cycles:  177916519 heartbeat IPC: 0.90095 cumulative IPC: 1.26310 (Simulation time: 0 hr 9 min 43 sec) 
Heartbeat CPU  0 instructions:  271000001 cycles:  178792006 heartbeat IPC: 1.14222 cumulative IPC: 1.26232 (Simulation time: 0 hr 9 min 45 sec) 
Heartbeat CPU  0 instructions:  272000000 cycles:  179388147 heartbeat IPC: 1.67745 cumulative IPC: 1.26414 (Simulation time: 0 hr 9 min 48 sec) 
Heartbeat CPU  0 instructions:  273000001 cycles:  180032300 heartbeat IPC: 1.55243 cumulative IPC: 1.26550 (Simulation time: 0 hr 9 min 50 sec) 
Heartbeat CPU  0 instructions:  274000000 cycles:  181184911 heartbeat IPC: 0.86759 cumulative IPC: 1.26217 (Simulation time: 0 hr 9 min 52 sec) 
Heartbeat CPU  0 instructions:  275000003 cycles:  181950847 heartbeat IPC: 1.30560 cumulative IPC: 1.26241 (Simulation time: 0 hr 9 min 55 sec) 
Heartbeat CPU  0 instructions:  276000000 cycles:  182541606 heartbeat IPC: 1.69273 cumulative IPC: 1.26424 (Simulation time: 0 hr 9 min 57 sec) 
Heartbeat CPU  0 instructions:  277000001 cycles:  183309801 heartbeat IPC: 1.30175 cumulative IPC: 1.26444 (Simulation time: 0 hr 10 min 0 sec) 
Heartbeat CPU  0 instructions:  278000002 cycles:  184376095 heartbeat IPC: 0.93783 cumulative IPC: 1.26197 (Simulation time: 0 hr 10 min 2 sec) 
Heartbeat CPU  0 instructions:  279000003 cycles:  185112886 heartbeat IPC: 1.35724 cumulative IPC: 1.26247 (Simulation time: 0 hr 10 min 4 sec) 
Heartbeat CPU  0 instructions:  280000000 cycles:  185704159 heartbeat IPC: 1.69126 cumulative IPC: 1.26425 (Simulation time: 0 hr 10 min 7 sec) 
Heartbeat CPU  0 instructions:  281000003 cycles:  186508821 heartbeat IPC: 1.24276 cumulative IPC: 1.26413 (Simulation time: 0 hr 10 min 9 sec) 
Heartbeat CPU  0 instructions:  282000001 cycles:  187565599 heartbeat IPC: 0.94627 cumulative IPC: 1.26180 (Simulation time: 0 hr 10 min 11 sec) 
Heartbeat CPU  0 instructions:  283000003 cycles:  188314600 heartbeat IPC: 1.33511 cumulative IPC: 1.26218 (Simulation time: 0 hr 10 min 14 sec) 
Heartbeat CPU  0 instructions:  284000000 cycles:  188905450 heartbeat IPC: 1.69247 cumulative IPC: 1.26392 (Simulation time: 0 hr 10 min 16 sec) 
Heartbeat CPU  0 instructions:  285000002 cycles:  189832364 heartbeat IPC: 1.07885 cumulative IPC: 1.26275 (Simulation time: 0 hr 10 min 18 sec) 
Heartbeat CPU  0 instructions:  286000002 cycles:  191049854 heartbeat IPC: 0.82136 cumulative IPC: 1.25912 (Simulation time: 0 hr 10 min 21 sec) 
Heartbeat CPU  0 instructions:  287000003 cycles:  191976276 heartbeat IPC: 1.07942 cumulative IPC: 1.25800 (Simulation time: 0 hr 10 min 23 sec) 
Heartbeat CPU  0 instructions:  288000000 cycles:  192568675 heartbeat IPC: 1.68805 cumulative IPC: 1.25970 (Simulation time: 0 hr 10 min 25 sec) 
Heartbeat CPU  0 instructions:  289000001 cycles:  193303721 heartbeat IPC: 1.36046 cumulative IPC: 1.26020 (Simulation time: 0 hr 10 min 28 sec) 
Heartbeat CPU  0 instructions:  290000002 cycles:  194381272 heartbeat IPC: 0.92803 cumulative IPC: 1.25783 (Simulation time: 0 hr 10 min 30 sec) 
Heartbeat CPU  0 instructions:  291000003 cycles:  195498093 heartbeat IPC: 0.89540 cumulative IPC: 1.25517 (Simulation time: 0 hr 10 min 33 sec) 
Heartbeat CPU  0 instructions:  292000000 cycles:  196602264 heartbeat IPC: 0.90565 cumulative IPC: 1.25265 (Simulation time: 0 hr 10 min 35 sec) 
Heartbeat CPU  0 instructions:  293000001 cycles:  197262207 heartbeat IPC: 1.51528 cumulative IPC: 1.25378 (Simulation time: 0 hr 10 min 37 sec) 
Heartbeat CPU  0 instructions:  294000002 cycles:  197854411 heartbeat IPC: 1.68861 cumulative IPC: 1.25544 (Simulation time: 0 hr 10 min 40 sec) 
Heartbeat CPU  0 instructions:  295000003 cycles:  198804076 heartbeat IPC: 1.05300 cumulative IPC: 1.25421 (Simulation time: 0 hr 10 min 42 sec) 
Heartbeat CPU  0 instructions:  296000000 cycles:  199751173 heartbeat IPC: 1.05585 cumulative IPC: 1.25300 (Simulation time: 0 hr 10 min 44 sec) 
Heartbeat CPU  0 instructions:  297000002 cycles:  200689979 heartbeat IPC: 1.06518 cumulative IPC: 1.25188 (Simulation time: 0 hr 10 min 47 sec) 
Heartbeat CPU  0 instructions:  298000003 cycles:  201743821 heartbeat IPC: 0.94891 cumulative IPC: 1.24987 (Simulation time: 0 hr 10 min 49 sec) 
Heartbeat CPU  0 instructions:  299000001 cycles:  202604415 heartbeat IPC: 1.16199 cumulative IPC: 1.24939 (Simulation time: 0 hr 10 min 52 sec) 
Heartbeat CPU  0 instructions:  300000000 cycles:  203199963 heartbeat IPC: 1.67912 cumulative IPC: 1.25099 (Simulation time: 0 hr 10 min 54 sec) 
Heartbeat CPU  0 instructions:  301000000 cycles:  204018234 heartbeat IPC: 1.22209 cumulative IPC: 1.25085 (Simulation time: 0 hr 10 min 56 sec) 
Heartbeat CPU  0 instructions:  302000001 cycles:  204953067 heartbeat IPC: 1.06971 cumulative IPC: 1.24980 (Simulation time: 0 hr 10 min 59 sec) 
Heartbeat CPU  0 instructions:  303000003 cycles:  205868356 heartbeat IPC: 1.09255 cumulative IPC: 1.24891 (Simulation time: 0 hr 11 min 1 sec) 
Heartbeat CPU  0 instructions:  304000000 cycles:  206824288 heartbeat IPC: 1.04610 cumulative IPC: 1.24773 (Simulation time: 0 hr 11 min 3 sec) 
Heartbeat CPU  0 instructions:  305000000 cycles:  207986628 heartbeat IPC: 0.86033 cumulative IPC: 1.24499 (Simulation time: 0 hr 11 min 6 sec) 
Heartbeat CPU  0 instructions:  306000002 cycles:  208833640 heartbeat IPC: 1.18062 cumulative IPC: 1.24466 (Simulation time: 0 hr 11 min 8 sec) 
Heartbeat CPU  0 instructions:  307000001 cycles:  209428232 heartbeat IPC: 1.68182 cumulative IPC: 1.24623 (Simulation time: 0 hr 11 min 11 sec) 
Heartbeat CPU  0 instructions:  308000000 cycles:  210203830 heartbeat IPC: 1.28933 cumulative IPC: 1.24643 (Simulation time: 0 hr 11 min 13 sec) 
Heartbeat CPU  0 instructions:  309000002 cycles:  211161783 heartbeat IPC: 1.04389 cumulative IPC: 1.24527 (Simulation time: 0 hr 11 min 15 sec) 
Heartbeat CPU  0 instructions:  310000002 cycles:  212069837 heartbeat IPC: 1.10126 cumulative IPC: 1.24450 (Simulation time: 0 hr 11 min 18 sec) 
Heartbeat CPU  0 instructions:  311000002 cycles:  213032847 heartbeat IPC: 1.03841 cumulative IPC: 1.24333 (Simulation time: 0 hr 11 min 20 sec) 
Heartbeat CPU  0 instructions:  312000000 cycles:  214152300 heartbeat IPC: 0.89329 cumulative IPC: 1.24104 (Simulation time: 0 hr 11 min 22 sec) 
Heartbeat CPU  0 instructions:  313000003 cycles:  214936183 heartbeat IPC: 1.27570 cumulative IPC: 1.24119 (Simulation time: 0 hr 11 min 25 sec) 
Heartbeat CPU  0 instructions:  314000000 cycles:  215531057 heartbeat IPC: 1.68102 cumulative IPC: 1.24271 (Simulation time: 0 hr 11 min 27 sec) 
Heartbeat CPU  0 instructions:  315000003 cycles:  216329023 heartbeat IPC: 1.25319 cumulative IPC: 1.24276 (Simulation time: 0 hr 11 min 30 sec) 
Heartbeat CPU  0 instructions:  316000000 cycles:  217286234 heartbeat IPC: 1.04470 cumulative IPC: 1.24167 (Simulation time: 0 hr 11 min 32 sec) 
Heartbeat CPU  0 instructions:  317000002 cycles:  218309009 heartbeat IPC: 0.97773 cumulative IPC: 1.24013 (Simulation time: 0 hr 11 min 34 sec) 
Heartbeat CPU  0 instructions:  318000001 cycles:  219398345 heartbeat IPC: 0.91799 cumulative IPC: 1.23814 (Simulation time: 0 hr 11 min 37 sec) 
Heartbeat CPU  0 instructions:  319000002 cycles:  220199823 heartbeat IPC: 1.24770 cumulative IPC: 1.23818 (Simulation time: 0 hr 11 min 39 sec) 
Heartbeat CPU  0 instructions:  320000000 cycles:  220796336 heartbeat IPC: 1.67641 cumulative IPC: 1.23965 (Simulation time: 0 hr 11 min 41 sec) 
Heartbeat CPU  0 instructions:  321000000 cycles:  221616064 heartbeat IPC: 1.21992 cumulative IPC: 1.23956 (Simulation time: 0 hr 11 min 44 sec) 
Heartbeat CPU  0 instructions:  322000001 cycles:  222622270 heartbeat IPC: 0.99383 cumulative IPC: 1.23818 (Simulation time: 0 hr 11 min 46 sec) 
Heartbeat CPU  0 instructions:  323000000 cycles:  223662157 heartbeat IPC: 0.96164 cumulative IPC: 1.23659 (Simulation time: 0 hr 11 min 49 sec) 
Heartbeat CPU  0 instructions:  324000000 cycles:  224847871 heartbeat IPC: 0.84337 cumulative IPC: 1.23402 (Simulation time: 0 hr 11 min 51 sec) 
Heartbeat CPU  0 instructions:  325000000 cycles:  225675885 heartbeat IPC: 1.20771 cumulative IPC: 1.23390 (Simulation time: 0 hr 11 min 53 sec) 
Heartbeat CPU  0 instructions:  326000000 cycles:  226270469 heartbeat IPC: 1.68185 cumulative IPC: 1.23536 (Simulation time: 0 hr 11 min 56 sec) 
Heartbeat CPU  0 instructions:  327000001 cycles:  226992193 heartbeat IPC: 1.38557 cumulative IPC: 1.23595 (Simulation time: 0 hr 11 min 58 sec) 
Heartbeat CPU  0 instructions:  328000000 cycles:  228004746 heartbeat IPC: 0.98760 cumulative IPC: 1.23458 (Simulation time: 0 hr 12 min 0 sec) 
Heartbeat CPU  0 instructions:  329000000 cycles:  229010470 heartbeat IPC: 0.99431 cumulative IPC: 1.23328 (Simulation time: 0 hr 12 min 3 sec) 
Heartbeat CPU  0 instructions:  330000000 cycles:  230151904 heartbeat IPC: 0.87609 cumulative IPC: 1.23110 (Simulation time: 0 hr 12 min 5 sec) 
Heartbeat CPU  0 instructions:  331000003 cycles:  230960837 heartbeat IPC: 1.23620 cumulative IPC: 1.23112 (Simulation time: 0 hr 12 min 8 sec) 
Heartbeat CPU  0 instructions:  332000000 cycles:  231555529 heartbeat IPC: 1.68154 cumulative IPC: 1.23255 (Simulation time: 0 hr 12 min 10 sec) 
Heartbeat CPU  0 instructions:  333000000 cycles:  232299022 heartbeat IPC: 1.34500 cumulative IPC: 1.23299 (Simulation time: 0 hr 12 min 12 sec) 
Heartbeat CPU  0 instructions:  334000002 cycles:  233361814 heartbeat IPC: 0.94092 cumulative IPC: 1.23135 (Simulation time: 0 hr 12 min 15 sec) 
Heartbeat CPU  0 instructions:  335000002 cycles:  234418770 heartbeat IPC: 0.94611 cumulative IPC: 1.22978 (Simulation time: 0 hr 12 min 17 sec) 
Heartbeat CPU  0 instructions:  336000000 cycles:  235547807 heartbeat IPC: 0.88571 cumulative IPC: 1.22776 (Simulation time: 0 hr 12 min 19 sec) 
Heartbeat CPU  0 instructions:  337000003 cycles:  236377839 heartbeat IPC: 1.20478 cumulative IPC: 1.22766 (Simulation time: 0 hr 12 min 22 sec) 
Heartbeat CPU  0 instructions:  338000000 cycles:  237054314 heartbeat IPC: 1.47825 cumulative IPC: 1.22853 (Simulation time: 0 hr 12 min 24 sec) 
Heartbeat CPU  0 instructions:  339000001 cycles:  237646151 heartbeat IPC: 1.68966 cumulative IPC: 1.22994 (Simulation time: 0 hr 12 min 26 sec) 
Heartbeat CPU  0 instructions:  340000000 cycles:  238637541 heartbeat IPC: 1.00868 cumulative IPC: 1.22881 (Simulation time: 0 hr 12 min 29 sec) 
Heartbeat CPU  0 instructions:  341000000 cycles:  239703014 heartbeat IPC: 0.93855 cumulative IPC: 1.22724 (Simulation time: 0 hr 12 min 31 sec) 
Heartbeat CPU  0 instructions:  342000001 cycles:  240732641 heartbeat IPC: 0.97123 cumulative IPC: 1.22590 (Simulation time: 0 hr 12 min 34 sec) 
Heartbeat CPU  0 instructions:  343000001 cycles:  241450747 heartbeat IPC: 1.39255 cumulative IPC: 1.22651 (Simulation time: 0 hr 12 min 36 sec) 
Heartbeat CPU  0 instructions:  344000000 cycles:  242044870 heartbeat IPC: 1.68315 cumulative IPC: 1.22787 (Simulation time: 0 hr 12 min 38 sec) 
Heartbeat CPU  0 instructions:  345000002 cycles:  242952194 heartbeat IPC: 1.10214 cumulative IPC: 1.22730 (Simulation time: 0 hr 12 min 41 sec) 
Heartbeat CPU  0 instructions:  346000000 cycles:  243990566 heartbeat IPC: 0.96304 cumulative IPC: 1.22593 (Simulation time: 0 hr 12 min 43 sec) 
Heartbeat CPU  0 instructions:  347000000 cycles:  245083924 heartbeat IPC: 0.91461 cumulative IPC: 1.22425 (Simulation time: 0 hr 12 min 46 sec) 
Heartbeat CPU  0 instructions:  348000000 cycles:  245841667 heartbeat IPC: 1.31971 cumulative IPC: 1.22460 (Simulation time: 0 hr 12 min 48 sec) 
Heartbeat CPU  0 instructions:  349000003 cycles:  246435349 heartbeat IPC: 1.68441 cumulative IPC: 1.22595 (Simulation time: 0 hr 12 min 50 sec) 
Heartbeat CPU  0 instructions:  350000000 cycles:  247219332 heartbeat IPC: 1.27553 cumulative IPC: 1.22614 (Simulation time: 0 hr 12 min 53 sec) 
Heartbeat CPU  0 instructions:  351000000 cycles:  248259035 heartbeat IPC: 0.96181 cumulative IPC: 1.22480 (Simulation time: 0 hr 12 min 55 sec) 
Heartbeat CPU  0 instructions:  352000000 cycles:  249309647 heartbeat IPC: 0.95183 cumulative IPC: 1.22341 (Simulation time: 0 hr 12 min 57 sec) 
Heartbeat CPU  0 instructions:  353000001 cycles:  250051870 heartbeat IPC: 1.34731 cumulative IPC: 1.22385 (Simulation time: 0 hr 13 min 0 sec) 
Heartbeat CPU  0 instructions:  354000000 cycles:  250647774 heartbeat IPC: 1.67812 cumulative IPC: 1.22516 (Simulation time: 0 hr 13 min 2 sec) 
Heartbeat CPU  0 instructions:  355000002 cycles:  251456361 heartbeat IPC: 1.23673 cumulative IPC: 1.22520 (Simulation time: 0 hr 13 min 4 sec) 
Heartbeat CPU  0 instructions:  356000000 cycles:  252464365 heartbeat IPC: 0.99206 cumulative IPC: 1.22408 (Simulation time: 0 hr 13 min 7 sec) 
Heartbeat CPU  0 instructions:  357000000 cycles:  253508243 heartbeat IPC: 0.95797 cumulative IPC: 1.22276 (Simulation time: 0 hr 13 min 9 sec) 
Heartbeat CPU  0 instructions:  358000002 cycles:  254306043 heartbeat IPC: 1.25345 cumulative IPC: 1.22287 (Simulation time: 0 hr 13 min 12 sec) 
Heartbeat CPU  0 instructions:  359000000 cycles:  254901214 heartbeat IPC: 1.68019 cumulative IPC: 1.22416 (Simulation time: 0 hr 13 min 14 sec) 
Heartbeat CPU  0 instructions:  360000000 cycles:  255669756 heartbeat IPC: 1.30117 cumulative IPC: 1.22444 (Simulation time: 0 hr 13 min 16 sec) 
Heartbeat CPU  0 instructions:  361000002 cycles:  256649405 heartbeat IPC: 1.02078 cumulative IPC: 1.22350 (Simulation time: 0 hr 13 min 19 sec) 
Heartbeat CPU  0 instructions:  362000001 cycles:  257618727 heartbeat IPC: 1.03165 cumulative IPC: 1.22263 (Simulation time: 0 hr 13 min 21 sec) 
Heartbeat CPU  0 instructions:  363000002 cycles:  258601527 heartbeat IPC: 1.01750 cumulative IPC: 1.22170 (Simulation time: 0 hr 13 min 23 sec) 
Heartbeat CPU  0 instructions:  364000000 cycles:  259333222 heartbeat IPC: 1.36669 cumulative IPC: 1.22219 (Simulation time: 0 hr 13 min 26 sec) 
Heartbeat CPU  0 instructions:  365000002 cycles:  259929306 heartbeat IPC: 1.67762 cumulative IPC: 1.22344 (Simulation time: 0 hr 13 min 28 sec) 
Heartbeat CPU  0 instructions:  366000000 cycles:  260881968 heartbeat IPC: 1.04969 cumulative IPC: 1.22268 (Simulation time: 0 hr 13 min 30 sec) 
Heartbeat CPU  0 instructions:  367000000 cycles:  261960554 heartbeat IPC: 0.92714 cumulative IPC: 1.22122 (Simulation time: 0 hr 13 min 33 sec) 
Heartbeat CPU  0 instructions:  368000000 cycles:  263027623 heartbeat IPC: 0.93715 cumulative IPC: 1.21984 (Simulation time: 0 hr 13 min 35 sec) 
Heartbeat CPU  0 instructions:  369000001 cycles:  263782223 heartbeat IPC: 1.32521 cumulative IPC: 1.22020 (Simulation time: 0 hr 13 min 38 sec) 
Heartbeat CPU  0 instructions:  370000001 cycles:  264376930 heartbeat IPC: 1.68150 cumulative IPC: 1.22144 (Simulation time: 0 hr 13 min 40 sec) 
Heartbeat CPU  0 instructions:  371000000 cycles:  265335051 heartbeat IPC: 1.04371 cumulative IPC: 1.22068 (Simulation time: 0 hr 13 min 42 sec) 
Heartbeat CPU  0 instructions:  372000000 cycles:  266562496 heartbeat IPC: 0.81470 cumulative IPC: 1.21845 (Simulation time: 0 hr 13 min 45 sec) 
Heartbeat CPU  0 instructions:  373000001 cycles:  267560021 heartbeat IPC: 1.00248 cumulative IPC: 1.21748 (Simulation time: 0 hr 13 min 47 sec) 
Heartbeat CPU  0 instructions:  374000001 cycles:  268190797 heartbeat IPC: 1.58535 cumulative IPC: 1.21852 (Simulation time: 0 hr 13 min 50 sec) 
Heartbeat CPU  0 instructions:  375000000 cycles:  268782324 heartbeat IPC: 1.69054 cumulative IPC: 1.21975 (Simulation time: 0 hr 13 min 52 sec) 
Heartbeat CPU  0 instructions:  376000000 cycles:  269978767 heartbeat IPC: 0.83581 cumulative IPC: 1.21773 (Simulation time: 0 hr 13 min 54 sec) 
Heartbeat CPU  0 instructions:  377000001 cycles:  271182577 heartbeat IPC: 0.83070 cumulative IPC: 1.21568 (Simulation time: 0 hr 13 min 57 sec) 
Heartbeat CPU  0 instructions:  378000002 cycles:  271954708 heartbeat IPC: 1.29512 cumulative IPC: 1.21595 (Simulation time: 0 hr 13 min 59 sec) 
Heartbeat CPU  0 instructions:  379000001 cycles:  272548144 heartbeat IPC: 1.68510 cumulative IPC: 1.21717 (Simulation time: 0 hr 14 min 1 sec) 
Heartbeat CPU  0 instructions:  380000000 cycles:  273364249 heartbeat IPC: 1.22533 cumulative IPC: 1.21720 (Simulation time: 0 hr 14 min 4 sec) 
Heartbeat CPU  0 instructions:  381000001 cycles:  274500047 heartbeat IPC: 0.88044 cumulative IPC: 1.21554 (Simulation time: 0 hr 14 min 6 sec) 
Heartbeat CPU  0 instructions:  382000003 cycles:  275570146 heartbeat IPC: 0.93449 cumulative IPC: 1.21425 (Simulation time: 0 hr 14 min 9 sec) 
Heartbeat CPU  0 instructions:  383000000 cycles:  276305932 heartbeat IPC: 1.35909 cumulative IPC: 1.21470 (Simulation time: 0 hr 14 min 11 sec) 
Heartbeat CPU  0 instructions:  384000000 cycles:  276899879 heartbeat IPC: 1.68365 cumulative IPC: 1.21590 (Simulation time: 0 hr 14 min 13 sec) 
Heartbeat CPU  0 instructions:  385000000 cycles:  277925541 heartbeat IPC: 0.97498 cumulative IPC: 1.21484 (Simulation time: 0 hr 14 min 16 sec) 
Heartbeat CPU  0 instructions:  386000000 cycles:  279172943 heartbeat IPC: 0.80167 cumulative IPC: 1.21266 (Simulation time: 0 hr 14 min 18 sec) 
Heartbeat CPU  0 instructions:  387000000 cycles:  280222581 heartbeat IPC: 0.95271 cumulative IPC: 1.21151 (Simulation time: 0 hr 14 min 21 sec) 
Heartbeat CPU  0 instructions:  388000000 cycles:  280874128 heartbeat IPC: 1.53481 cumulative IPC: 1.21239 (Simulation time: 0 hr 14 min 23 sec) 
Heartbeat CPU  0 instructions:  389000000 cycles:  281465812 heartbeat IPC: 1.69009 cumulative IPC: 1.21358 (Simulation time: 0 hr 14 min 25 sec) 
Heartbeat CPU  0 instructions:  390000003 cycles:  282648604 heartbeat IPC: 0.84546 cumulative IPC: 1.21176 (Simulation time: 0 hr 14 min 28 sec) 
Heartbeat CPU  0 instructions:  391000003 cycles:  283917678 heartbeat IPC: 0.78798 cumulative IPC: 1.20952 (Simulation time: 0 hr 14 min 30 sec) 
Heartbeat CPU  0 instructions:  392000000 cycles:  284779366 heartbeat IPC: 1.16051 cumulative IPC: 1.20935 (Simulation time: 0 hr 14 min 33 sec) 
Heartbeat CPU  0 instructions:  393000001 cycles:  285372629 heartbeat IPC: 1.68559 cumulative IPC: 1.21052 (Simulation time: 0 hr 14 min 35 sec) 
Heartbeat CPU  0 instructions:  394000002 cycles:  286145448 heartbeat IPC: 1.29397 cumulative IPC: 1.21078 (Simulation time: 0 hr 14 min 37 sec) 
Heartbeat CPU  0 instructions:  395000002 cycles:  287327211 heartbeat IPC: 0.84619 cumulative IPC: 1.20902 (Simulation time: 0 hr 14 min 40 sec) 
Heartbeat CPU  0 instructions:  396000000 cycles:  288575571 heartbeat IPC: 0.80105 cumulative IPC: 1.20694 (Simulation time: 0 hr 14 min 42 sec) 
Heartbeat CPU  0 instructions:  397000000 cycles:  289493000 heartbeat IPC: 1.09000 cumulative IPC: 1.20650 (Simulation time: 0 hr 14 min 45 sec) 
Heartbeat CPU  0 instructions:  398000001 cycles:  290245322 heartbeat IPC: 1.32922 cumulative IPC: 1.20688 (Simulation time: 0 hr 14 min 47 sec) 
Heartbeat CPU  0 instructions:  399000000 cycles:  290837439 heartbeat IPC: 1.68885 cumulative IPC: 1.20803 (Simulation time: 0 hr 14 min 49 sec) 
Heartbeat CPU  0 instructions:  400000000 cycles:  291626005 heartbeat IPC: 1.26812 cumulative IPC: 1.20822 (Simulation time: 0 hr 14 min 52 sec) 
Heartbeat CPU  0 instructions:  401000002 cycles:  292725707 heartbeat IPC: 0.90934 cumulative IPC: 1.20690 (Simulation time: 0 hr 14 min 54 sec) 
Heartbeat CPU  0 instructions:  402000002 cycles:  293778253 heartbeat IPC: 0.95008 cumulative IPC: 1.20582 (Simulation time: 0 hr 14 min 57 sec) 
Heartbeat CPU  0 instructions:  403000002 cycles:  294751766 heartbeat IPC: 1.02721 cumulative IPC: 1.20513 (Simulation time: 0 hr 14 min 59 sec) 
Heartbeat CPU  0 instructions:  404000000 cycles:  295366421 heartbeat IPC: 1.62693 cumulative IPC: 1.20616 (Simulation time: 0 hr 15 min 1 sec) 
Heartbeat CPU  0 instructions:  405000001 cycles:  295994002 heartbeat IPC: 1.59342 cumulative IPC: 1.20712 (Simulation time: 0 hr 15 min 4 sec) 
Heartbeat CPU  0 instructions:  406000003 cycles:  297126976 heartbeat IPC: 0.88263 cumulative IPC: 1.20567 (Simulation time: 0 hr 15 min 6 sec) 
Heartbeat CPU  0 instructions:  407000000 cycles:  298194061 heartbeat IPC: 0.93713 cumulative IPC: 1.20455 (Simulation time: 0 hr 15 min 9 sec) 
Heartbeat CPU  0 instructions:  408000000 cycles:  299182701 heartbeat IPC: 1.01149 cumulative IPC: 1.20380 (Simulation time: 0 hr 15 min 11 sec) 
Heartbeat CPU  0 instructions:  409000001 cycles:  299900628 heartbeat IPC: 1.39290 cumulative IPC: 1.20433 (Simulation time: 0 hr 15 min 13 sec) 
Heartbeat CPU  0 instructions:  410000002 cycles:  300492639 heartbeat IPC: 1.68916 cumulative IPC: 1.20545 (Simulation time: 0 hr 15 min 16 sec) 
Heartbeat CPU  0 instructions:  411000001 cycles:  301528545 heartbeat IPC: 0.96534 cumulative IPC: 1.20449 (Simulation time: 0 hr 15 min 18 sec) 
Heartbeat CPU  0 instructions:  412000000 cycles:  302669126 heartbeat IPC: 0.87675 cumulative IPC: 1.20304 (Simulation time: 0 hr 15 min 20 sec) 
Heartbeat CPU  0 instructions:  413000001 cycles:  303706924 heartbeat IPC: 0.96358 cumulative IPC: 1.20209 (Simulation time: 0 hr 15 min 23 sec) 
Heartbeat CPU  0 instructions:  414000001 cycles:  304436859 heartbeat IPC: 1.36998 cumulative IPC: 1.20256 (Simulation time: 0 hr 15 min 25 sec) 
Heartbeat CPU  0 instructions:  415000000 cycles:  305030930 heartbeat IPC: 1.68330 cumulative IPC: 1.20365 (Simulation time: 0 hr 15 min 27 sec) 
Heartbeat CPU  0 instructions:  416000000 cycles:  305987150 heartbeat IPC: 1.04578 cumulative IPC: 1.20308 (Simulation time: 0 hr 15 min 30 sec) 
Heartbeat CPU  0 instructions:  417000003 cycles:  307039449 heartbeat IPC: 0.95030 cumulative IPC: 1.20207 (Simulation time: 0 hr 15 min 32 sec) 
Heartbeat CPU  0 instructions:  418000001 cycles:  308135711 heartbeat IPC: 0.91219 cumulative IPC: 1.20087 (Simulation time: 0 hr 15 min 35 sec) 
Heartbeat CPU  0 instructions:  419000000 cycles:  309172515 heartbeat IPC: 0.96450 cumulative IPC: 1.19995 (Simulation time: 0 hr 15 min 37 sec) 
Heartbeat CPU  0 instructions:  420000000 cycles:  309883156 heartbeat IPC: 1.40718 cumulative IPC: 1.20050 (Simulation time: 0 hr 15 min 39 sec) 
Heartbeat CPU  0 instructions:  421000001 cycles:  310474723 heartbeat IPC: 1.69043 cumulative IPC: 1.20158 (Simulation time: 0 hr 15 min 42 sec) 
Heartbeat CPU  0 instructions:  422000000 cycles:  311400074 heartbeat IPC: 1.08067 cumulative IPC: 1.20117 (Simulation time: 0 hr 15 min 44 sec) 
Heartbeat CPU  0 instructions:  423000000 cycles:  312344013 heartbeat IPC: 1.05939 cumulative IPC: 1.20067 (Simulation time: 0 hr 15 min 46 sec) 
Heartbeat CPU  0 instructions:  424000000 cycles:  313293131 heartbeat IPC: 1.05361 cumulative IPC: 1.20015 (Simulation time: 0 hr 15 min 49 sec) 
Heartbeat CPU  0 instructions:  425000001 cycles:  314319217 heartbeat IPC: 0.97458 cumulative IPC: 1.19930 (Simulation time: 0 hr 15 min 51 sec) 
Heartbeat CPU  0 instructions:  426000001 cycles:  315206023 heartbeat IPC: 1.12764 cumulative IPC: 1.19906 (Simulation time: 0 hr 15 min 54 sec) 
Heartbeat CPU  0 instructions:  427000000 cycles:  315800254 heartbeat IPC: 1.68285 cumulative IPC: 1.20012 (Simulation time: 0 hr 15 min 56 sec) 
Heartbeat CPU  0 instructions:  428000000 cycles:  316502008 heartbeat IPC: 1.42500 cumulative IPC: 1.20070 (Simulation time: 0 hr 15 min 58 sec) 
Heartbeat CPU  0 instructions:  429000002 cycles:  317462384 heartbeat IPC: 1.04126 cumulative IPC: 1.20014 (Simulation time: 0 hr 16 min 1 sec) 
Heartbeat CPU  0 instructions:  430000001 cycles:  318406285 heartbeat IPC: 1.05943 cumulative IPC: 1.19965 (Simulation time: 0 hr 16 min 3 sec) 
Heartbeat CPU  0 instructions:  431000001 cycles:  319340435 heartbeat IPC: 1.07049 cumulative IPC: 1.19922 (Simulation time: 0 hr 16 min 5 sec) 
Heartbeat CPU  0 instructions:  432000000 cycles:  320347067 heartbeat IPC: 0.99341 cumulative IPC: 1.19847 (Simulation time: 0 hr 16 min 8 sec) 
Heartbeat CPU  0 instructions:  433000003 cycles:  321049870 heartbeat IPC: 1.42288 cumulative IPC: 1.19904 (Simulation time: 0 hr 16 min 10 sec) 
Heartbeat CPU  0 instructions:  434000003 cycles:  321643094 heartbeat IPC: 1.68570 cumulative IPC: 1.20008 (Simulation time: 0 hr 16 min 12 sec) 
Heartbeat CPU  0 instructions:  435000000 cycles:  322544128 heartbeat IPC: 1.10983 cumulative IPC: 1.19978 (Simulation time: 0 hr 16 min 15 sec) 
Heartbeat CPU  0 instructions:  436000000 cycles:  323472157 heartbeat IPC: 1.07755 cumulative IPC: 1.19938 (Simulation time: 0 hr 16 min 17 sec) 
Heartbeat CPU  0 instructions:  437000002 cycles:  324408498 heartbeat IPC: 1.06799 cumulative IPC: 1.19894 (Simulation time: 0 hr 16 min 19 sec) 
Heartbeat CPU  0 instructions:  438000000 cycles:  325387557 heartbeat IPC: 1.02139 cumulative IPC: 1.19832 (Simulation time: 0 hr 16 min 22 sec) 
Heartbeat CPU  0 instructions:  439000002 cycles:  326080696 heartbeat IPC: 1.44271 cumulative IPC: 1.19892 (Simulation time: 0 hr 16 min 24 sec) 
Heartbeat CPU  0 instructions:  440000000 cycles:  326674554 heartbeat IPC: 1.68390 cumulative IPC: 1.19994 (Simulation time: 0 hr 16 min 26 sec) 
Heartbeat CPU  0 instructions:  441000002 cycles:  327552145 heartbeat IPC: 1.13949 cumulative IPC: 1.19975 (Simulation time: 0 hr 16 min 29 sec) 
Heartbeat CPU  0 instructions:  442000000 cycles:  328474077 heartbeat IPC: 1.08468 cumulative IPC: 1.19938 (Simulation time: 0 hr 16 min 31 sec) 
Heartbeat CPU  0 instructions:  443000002 cycles:  329410505 heartbeat IPC: 1.06789 cumulative IPC: 1.19895 (Simulation time: 0 hr 16 min 34 sec) 
Heartbeat CPU  0 instructions:  444000000 cycles:  330403631 heartbeat IPC: 1.00692 cumulative IPC: 1.19829 (Simulation time: 0 hr 16 min 36 sec) 
Heartbeat CPU  0 instructions:  445000000 cycles:  331071530 heartbeat IPC: 1.49723 cumulative IPC: 1.19898 (Simulation time: 0 hr 16 min 38 sec) 
Heartbeat CPU  0 instructions:  446000001 cycles:  331664709 heartbeat IPC: 1.68583 cumulative IPC: 1.19998 (Simulation time: 0 hr 16 min 41 sec) 
Heartbeat CPU  0 instructions:  447000003 cycles:  332580261 heartbeat IPC: 1.09224 cumulative IPC: 1.19964 (Simulation time: 0 hr 16 min 43 sec) 
Heartbeat CPU  0 instructions:  448000000 cycles:  333509609 heartbeat IPC: 1.07602 cumulative IPC: 1.19925 (Simulation time: 0 hr 16 min 45 sec) 
Heartbeat CPU  0 instructions:  449000001 cycles:  334445872 heartbeat IPC: 1.06808 cumulative IPC: 1.19882 (Simulation time: 0 hr 16 min 48 sec) 
Heartbeat CPU  0 instructions:  450000002 cycles:  335456397 heartbeat IPC: 0.98959 cumulative IPC: 1.19810 (Simulation time: 0 hr 16 min 50 sec) 
Heartbeat CPU  0 instructions:  451000003 cycles:  336297860 heartbeat IPC: 1.18841 cumulative IPC: 1.19807 (Simulation time: 0 hr 16 min 52 sec) 
Heartbeat CPU  0 instructions:  452000000 cycles:  336892005 heartbeat IPC: 1.68309 cumulative IPC: 1.19905 (Simulation time: 0 hr 16 min 55 sec) 
Heartbeat CPU  0 instructions:  453000000 cycles:  337601994 heartbeat IPC: 1.40847 cumulative IPC: 1.19956 (Simulation time: 0 hr 16 min 57 sec) 
Heartbeat CPU  0 instructions:  454000002 cycles:  338525693 heartbeat IPC: 1.08261 cumulative IPC: 1.19919 (Simulation time: 0 hr 17 min 0 sec) 
Heartbeat CPU  0 instructions:  455000002 cycles:  339462620 heartbeat IPC: 1.06732 cumulative IPC: 1.19878 (Simulation time: 0 hr 17 min 2 sec) 
Heartbeat CPU  0 instructions:  456000000 cycles:  340376834 heartbeat IPC: 1.09383 cumulative IPC: 1.19845 (Simulation time: 0 hr 17 min 4 sec) 
Heartbeat CPU  0 instructions:  457000003 cycles:  341347482 heartbeat IPC: 1.03024 cumulative IPC: 1.19790 (Simulation time: 0 hr 17 min 7 sec) 
Heartbeat CPU  0 instructions:  458000001 cycles:  342063035 heartbeat IPC: 1.39752 cumulative IPC: 1.19838 (Simulation time: 0 hr 17 min 9 sec) 
Heartbeat CPU  0 instructions:  459000000 cycles:  342656321 heartbeat IPC: 1.68553 cumulative IPC: 1.19935 (Simulation time: 0 hr 17 min 11 sec) 
Heartbeat CPU  0 instructions:  460000000 cycles:  343545694 heartbeat IPC: 1.12439 cumulative IPC: 1.19913 (Simulation time: 0 hr 17 min 14 sec) 
Heartbeat CPU  0 instructions:  461000002 cycles:  344486238 heartbeat IPC: 1.06322 cumulative IPC: 1.19870 (Simulation time: 0 hr 17 min 16 sec) 
Heartbeat CPU  0 instructions:  462000000 cycles:  345393843 heartbeat IPC: 1.10180 cumulative IPC: 1.19841 (Simulation time: 0 hr 17 min 18 sec) 
Heartbeat CPU  0 instructions:  463000000 cycles:  346382879 heartbeat IPC: 1.01109 cumulative IPC: 1.19780 (Simulation time: 0 hr 17 min 21 sec) 
Heartbeat CPU  0 instructions:  464000000 cycles:  347077157 heartbeat IPC: 1.44035 cumulative IPC: 1.19835 (Simulation time: 0 hr 17 min 23 sec) 
Heartbeat CPU  0 instructions:  465000000 cycles:  347669070 heartbeat IPC: 1.68944 cumulative IPC: 1.19931 (Simulation time: 0 hr 17 min 25 sec) 
Heartbeat CPU  0 instructions:  466000002 cycles:  348539648 heartbeat IPC: 1.14866 cumulative IPC: 1.19916 (Simulation time: 0 hr 17 min 28 sec) 
Heartbeat CPU  0 instructions:  467000002 cycles:  349481500 heartbeat IPC: 1.06174 cumulative IPC: 1.19874 (Simulation time: 0 hr 17 min 30 sec) 
Heartbeat CPU  0 instructions:  468000000 cycles:  350445546 heartbeat IPC: 1.03729 cumulative IPC: 1.19824 (Simulation time: 0 hr 17 min 32 sec) 
Heartbeat CPU  0 instructions:  469000001 cycles:  351315393 heartbeat IPC: 1.14963 cumulative IPC: 1.19810 (Simulation time: 0 hr 17 min 35 sec) 
Heartbeat CPU  0 instructions:  470000002 cycles:  351909083 heartbeat IPC: 1.68438 cumulative IPC: 1.19903 (Simulation time: 0 hr 17 min 37 sec) 
Heartbeat CPU  0 instructions:  471000001 cycles:  352572662 heartbeat IPC: 1.50698 cumulative IPC: 1.19969 (Simulation time: 0 hr 17 min 39 sec) 
Heartbeat CPU  0 instructions:  472000000 cycles:  353496154 heartbeat IPC: 1.08285 cumulative IPC: 1.19935 (Simulation time: 0 hr 17 min 42 sec) 
Heartbeat CPU  0 instructions:  473000003 cycles:  354412145 heartbeat IPC: 1.09172 cumulative IPC: 1.19903 (Simulation time: 0 hr 17 min 44 sec) 
Heartbeat CPU  0 instructions:  474000003 cycles:  355453506 heartbeat IPC: 0.96028 cumulative IPC: 1.19823 (Simulation time: 0 hr 17 min 47 sec) 
Heartbeat CPU  0 instructions:  475000003 cycles:  356298476 heartbeat IPC: 1.18347 cumulative IPC: 1.19819 (Simulation time: 0 hr 17 min 49 sec) 
Heartbeat CPU  0 instructions:  476000000 cycles:  356940246 heartbeat IPC: 1.55819 cumulative IPC: 1.19893 (Simulation time: 0 hr 17 min 51 sec) 
Heartbeat CPU  0 instructions:  477000000 cycles:  357531608 heartbeat IPC: 1.69101 cumulative IPC: 1.19986 (Simulation time: 0 hr 17 min 54 sec) 
Heartbeat CPU  0 instructions:  478000002 cycles:  358437122 heartbeat IPC: 1.10435 cumulative IPC: 1.19958 (Simulation time: 0 hr 17 min 56 sec) 
Heartbeat CPU  0 instructions:  479000003 cycles:  359357750 heartbeat IPC: 1.08622 cumulative IPC: 1.19925 (Simulation time: 0 hr 17 min 58 sec) 
Heartbeat CPU  0 instructions:  480000000 cycles:  360329686 heartbeat IPC: 1.02887 cumulative IPC: 1.19873 (Simulation time: 0 hr 18 min 1 sec) 
Heartbeat CPU  0 instructions:  481000002 cycles:  361125425 heartbeat IPC: 1.25670 cumulative IPC: 1.19887 (Simulation time: 0 hr 18 min 3 sec) 
Heartbeat CPU  0 instructions:  482000002 cycles:  361720002 heartbeat IPC: 1.68187 cumulative IPC: 1.19978 (Simulation time: 0 hr 18 min 5 sec) 
Heartbeat CPU  0 instructions:  483000003 cycles:  362536950 heartbeat IPC: 1.22407 cumulative IPC: 1.19984 (Simulation time: 0 hr 18 min 8 sec) 
Heartbeat CPU  0 instructions:  484000000 cycles:  363448195 heartbeat IPC: 1.09740 cumulative IPC: 1.19955 (Simulation time: 0 hr 18 min 10 sec) 
Heartbeat CPU  0 instructions:  485000003 cycles:  364377438 heartbeat IPC: 1.07615 cumulative IPC: 1.19919 (Simulation time: 0 hr 18 min 12 sec) 
Heartbeat CPU  0 instructions:  486000002 cycles:  365357510 heartbeat IPC: 1.02033 cumulative IPC: 1.19864 (Simulation time: 0 hr 18 min 15 sec) 
Heartbeat CPU  0 instructions:  487000002 cycles:  366313766 heartbeat IPC: 1.04575 cumulative IPC: 1.19819 (Simulation time: 0 hr 18 min 17 sec) 
Heartbeat CPU  0 instructions:  488000000 cycles:  366908449 heartbeat IPC: 1.68156 cumulative IPC: 1.19908 (Simulation time: 0 hr 18 min 19 sec) 
Heartbeat CPU  0 instructions:  489000000 cycles:  367579335 heartbeat IPC: 1.49057 cumulative IPC: 1.19968 (Simulation time: 0 hr 18 min 22 sec) 
Heartbeat CPU  0 instructions:  490000000 cycles:  368516236 heartbeat IPC: 1.06735 cumulative IPC: 1.19930 (Simulation time: 0 hr 18 min 24 sec) 
Heartbeat CPU  0 instructions:  491000002 cycles:  369444067 heartbeat IPC: 1.07778 cumulative IPC: 1.19896 (Simulation time: 0 hr 18 min 27 sec) 
Heartbeat CPU  0 instructions:  492000000 cycles:  370406835 heartbeat IPC: 1.03867 cumulative IPC: 1.19848 (Simulation time: 0 hr 18 min 29 sec) 
Heartbeat CPU  0 instructions:  493000002 cycles:  371403514 heartbeat IPC: 1.00333 cumulative IPC: 1.19789 (Simulation time: 0 hr 18 min 31 sec) 
Heartbeat CPU  0 instructions:  494000000 cycles:  372036286 heartbeat IPC: 1.58034 cumulative IPC: 1.19863 (Simulation time: 0 hr 18 min 34 sec) 
Heartbeat CPU  0 instructions:  495000001 cycles:  372627804 heartbeat IPC: 1.69057 cumulative IPC: 1.19951 (Simulation time: 0 hr 18 min 36 sec) 
Heartbeat CPU  0 instructions:  496000000 cycles:  373569672 heartbeat IPC: 1.06172 cumulative IPC: 1.19912 (Simulation time: 0 hr 18 min 38 sec) 
Heartbeat CPU  0 instructions:  497000001 cycles:  374503694 heartbeat IPC: 1.07064 cumulative IPC: 1.19876 (Simulation time: 0 hr 18 min 41 sec) 
Heartbeat CPU  0 instructions:  498000000 cycles:  375449150 heartbeat IPC: 1.05769 cumulative IPC: 1.19835 (Simulation time: 0 hr 18 min 43 sec) 
Heartbeat CPU  0 instructions:  499000002 cycles:  376445777 heartbeat IPC: 1.00339 cumulative IPC: 1.19777 (Simulation time: 0 hr 18 min 45 sec) 
Heartbeat CPU  0 instructions:  500000000 cycles:  377205212 heartbeat IPC: 1.31677 cumulative IPC: 1.19804 (Simulation time: 0 hr 18 min 48 sec) 
Heartbeat CPU  0 instructions:  501000002 cycles:  377798957 heartbeat IPC: 1.68423 cumulative IPC: 1.19891 (Simulation time: 0 hr 18 min 50 sec) 
Heartbeat CPU  0 instructions:  502000000 cycles:  378689700 heartbeat IPC: 1.12266 cumulative IPC: 1.19870 (Simulation time: 0 hr 18 min 52 sec) 
Heartbeat CPU  0 instructions:  503000000 cycles:  379602327 heartbeat IPC: 1.09574 cumulative IPC: 1.19842 (Simulation time: 0 hr 18 min 55 sec) 
Heartbeat CPU  0 instructions:  504000000 cycles:  380546496 heartbeat IPC: 1.05913 cumulative IPC: 1.19803 (Simulation time: 0 hr 18 min 57 sec) 
Heartbeat CPU  0 instructions:  505000000 cycles:  381548750 heartbeat IPC: 0.99775 cumulative IPC: 1.19744 (Simulation time: 0 hr 18 min 59 sec) 
Heartbeat CPU  0 instructions:  506000001 cycles:  382549240 heartbeat IPC: 0.99951 cumulative IPC: 1.19686 (Simulation time: 0 hr 19 min 2 sec) 
Heartbeat CPU  0 instructions:  507000000 cycles:  383144768 heartbeat IPC: 1.67918 cumulative IPC: 1.19770 (Simulation time: 0 hr 19 min 4 sec) 
Heartbeat CPU  0 instructions:  508000000 cycles:  383841523 heartbeat IPC: 1.43522 cumulative IPC: 1.19819 (Simulation time: 0 hr 19 min 7 sec) 
Heartbeat CPU  0 instructions:  509000003 cycles:  384787752 heartbeat IPC: 1.05683 cumulative IPC: 1.19780 (Simulation time: 0 hr 19 min 9 sec) 
Heartbeat CPU  0 instructions:  510000002 cycles:  385686651 heartbeat IPC: 1.11247 cumulative IPC: 1.19757 (Simulation time: 0 hr 19 min 11 sec) 
Heartbeat CPU  0 instructions:  511000001 cycles:  386617785 heartbeat IPC: 1.07396 cumulative IPC: 1.19724 (Simulation time: 0 hr 19 min 14 sec) 
Heartbeat CPU  0 instructions:  512000000 cycles:  387735441 heartbeat IPC: 0.89473 cumulative IPC: 1.19625 (Simulation time: 0 hr 19 min 16 sec) 
Heartbeat CPU  0 instructions:  513000000 cycles:  388551481 heartbeat IPC: 1.22543 cumulative IPC: 1.19632 (Simulation time: 0 hr 19 min 18 sec) 
Heartbeat CPU  0 instructions:  514000000 cycles:  389148191 heartbeat IPC: 1.67586 cumulative IPC: 1.19715 (Simulation time: 0 hr 19 min 21 sec) 
Heartbeat CPU  0 instructions:  515000000 cycles:  389915156 heartbeat IPC: 1.30384 cumulative IPC: 1.19739 (Simulation time: 0 hr 19 min 23 sec) 
Heartbeat CPU  0 instructions:  516000000 cycles:  390856768 heartbeat IPC: 1.06201 cumulative IPC: 1.19702 (Simulation time: 0 hr 19 min 25 sec) 
Heartbeat CPU  0 instructions:  517000000 cycles:  391760996 heartbeat IPC: 1.10592 cumulative IPC: 1.19678 (Simulation time: 0 hr 19 min 28 sec) 
Heartbeat CPU  0 instructions:  518000003 cycles:  392713214 heartbeat IPC: 1.05018 cumulative IPC: 1.19638 (Simulation time: 0 hr 19 min 30 sec) 
Heartbeat CPU  0 instructions:  519000002 cycles:  393792135 heartbeat IPC: 0.92685 cumulative IPC: 1.19555 (Simulation time: 0 hr 19 min 33 sec) 
Heartbeat CPU  0 instructions:  520000000 cycles:  394577457 heartbeat IPC: 1.27336 cumulative IPC: 1.19573 (Simulation time: 0 hr 19 min 35 sec) 
Heartbeat CPU  0 instructions:  521000003 cycles:  395170790 heartbeat IPC: 1.68540 cumulative IPC: 1.19655 (Simulation time: 0 hr 19 min 37 sec) 
Heartbeat CPU  0 instructions:  522000001 cycles:  395974024 heartbeat IPC: 1.24496 cumulative IPC: 1.19666 (Simulation time: 0 hr 19 min 40 sec) 
Heartbeat CPU  0 instructions:  523000000 cycles:  396901500 heartbeat IPC: 1.07819 cumulative IPC: 1.19635 (Simulation time: 0 hr 19 min 42 sec) 
Heartbeat CPU  0 instructions:  524000000 cycles:  397799566 heartbeat IPC: 1.11350 cumulative IPC: 1.19614 (Simulation time: 0 hr 19 min 44 sec) 
Heartbeat CPU  0 instructions:  525000001 cycles:  398773968 heartbeat IPC: 1.02627 cumulative IPC: 1.19568 (Simulation time: 0 hr 19 min 47 sec) 
Heartbeat CPU  0 instructions:  526000002 cycles:  399811566 heartbeat IPC: 0.96377 cumulative IPC: 1.19500 (Simulation time: 0 hr 19 min 49 sec) 
Heartbeat CPU  0 instructions:  527000002 cycles:  400563031 heartbeat IPC: 1.33073 cumulative IPC: 1.19529 (Simulation time: 0 hr 19 min 51 sec) 
Heartbeat CPU  0 instructions:  528000000 cycles:  401159900 heartbeat IPC: 1.67541 cumulative IPC: 1.19609 (Simulation time: 0 hr 19 min 54 sec) 
Heartbeat CPU  0 instructions:  529000003 cycles:  402006407 heartbeat IPC: 1.18133 cumulative IPC: 1.19605 (Simulation time: 0 hr 19 min 56 sec) 
Heartbeat CPU  0 instructions:  530000003 cycles:  402918350 heartbeat IPC: 1.09656 cumulative IPC: 1.19580 (Simulation time: 0 hr 19 min 59 sec) 
Heartbeat CPU  0 instructions:  531000002 cycles:  403830135 heartbeat IPC: 1.09675 cumulative IPC: 1.19555 (Simulation time: 0 hr 20 min 1 sec) 
[...]
Heartbeat CPU  0 instructions:  487000000 cycles: 2338050539 heartbeat IPC: 0.53487 cumulative IPC: 0.17360 (Simulation time: 0 hr 41 min 24 sec) 
Heartbeat CPU  0 instructions:  488000000 cycles: 2339750041 heartbeat IPC: 0.58841 cumulative IPC: 0.17392 (Simulation time: 0 hr 41 min 27 sec) 
Heartbeat CPU  0 instructions:  489000003 cycles: 2341794061 heartbeat IPC: 0.48923 cumulative IPC: 0.17421 (Simulation time: 0 hr 41 min 30 sec) 
Heartbeat CPU  0 instructions:  490000001 cycles: 2343754453 heartbeat IPC: 0.51010 cumulative IPC: 0.17450 (Simulation time: 0 hr 41 min 34 sec) 
Heartbeat CPU  0 instructions:  491000002 cycles: 2345587444 heartbeat IPC: 0.54556 cumulative IPC: 0.17480 (Simulation time: 0 hr 41 min 37 sec) 
Heartbeat CPU  0 instructions:  492000000 cycles: 2347452319 heartbeat IPC: 0.53623 cumulative IPC: 0.17511 (Simulation time: 0 hr 41 min 40 sec) 
Heartbeat CPU  0 instructions:  493000000 cycles: 2349319860 heartbeat IPC: 0.53546 cumulative IPC: 0.17541 (Simulation time: 0 hr 41 min 43 sec) 
Heartbeat CPU  0 instructions:  494000003 cycles: 2351221459 heartbeat IPC: 0.52587 cumulative IPC: 0.17570 (Simulation time: 0 hr 41 min 47 sec) 
Heartbeat CPU  0 instructions:  495000003 cycles: 2353103592 heartbeat IPC: 0.53131 cumulative IPC: 0.17600 (Simulation time: 0 hr 41 min 50 sec) 
Heartbeat CPU  0 instructions:  496000000 cycles: 2355000736 heartbeat IPC: 0.52711 cumulative IPC: 0.17630 (Simulation time: 0 hr 41 min 54 sec) 
Heartbeat CPU  0 instructions:  497000001 cycles: 2356877760 heartbeat IPC: 0.53276 cumulative IPC: 0.17660 (Simulation time: 0 hr 41 min 57 sec) 
Heartbeat CPU  0 instructions:  498000003 cycles: 2358770976 heartbeat IPC: 0.52820 cumulative IPC: 0.17689 (Simulation time: 0 hr 42 min 0 sec) 
Heartbeat CPU  0 instructions:  499000002 cycles: 2360697023 heartbeat IPC: 0.51920 cumulative IPC: 0.17718 (Simulation time: 0 hr 42 min 4 sec) 
Heartbeat CPU  0 instructions:  500000000 cycles: 2362753070 heartbeat IPC: 0.48637 cumulative IPC: 0.17747 (Simulation time: 0 hr 42 min 7 sec) 
Heartbeat CPU  0 instructions:  501000000 cycles: 2364907141 heartbeat IPC: 0.46424 cumulative IPC: 0.17774 (Simulation time: 0 hr 42 min 11 sec) 
Heartbeat CPU  0 instructions:  502000002 cycles: 2366763270 heartbeat IPC: 0.53876 cumulative IPC: 0.17804 (Simulation time: 0 hr 42 min 14 sec) 
Heartbeat CPU  0 instructions:  503000001 cycles: 2368632036 heartbeat IPC: 0.53511 cumulative IPC: 0.17833 (Simulation time: 0 hr 42 min 17 sec) 
Heartbeat CPU  0 instructions:  504000000 cycles: 2370743044 heartbeat IPC: 0.47371 cumulative IPC: 0.17861 (Simulation time: 0 hr 42 min 21 sec) 
Heartbeat CPU  0 instructions:  505000003 cycles: 2372990985 heartbeat IPC: 0.44485 cumulative IPC: 0.17887 (Simulation time: 0 hr 42 min 25 sec) 
Heartbeat CPU  0 instructions:  506000000 cycles: 2374972073 heartbeat IPC: 0.50477 cumulative IPC: 0.17916 (Simulation time: 0 hr 42 min 28 sec) 
Heartbeat CPU  0 instructions:  507000003 cycles: 2376986955 heartbeat IPC: 0.49631 cumulative IPC: 0.17944 (Simulation time: 0 hr 42 min 32 sec) 
Heartbeat CPU  0 instructions:  508000000 cycles: 2378938367 heartbeat IPC: 0.51245 cumulative IPC: 0.17973 (Simulation time: 0 hr 42 min 35 sec) 
Heartbeat CPU  0 instructions:  509000000 cycles: 2380860803 heartbeat IPC: 0.52017 cumulative IPC: 0.18001 (Simulation time: 0 hr 42 min 39 sec) 
Heartbeat CPU  0 instructions:  510000000 cycles: 2382747324 heartbeat IPC: 0.53008 cumulative IPC: 0.18030 (Simulation time: 0 hr 42 min 42 sec) 
Heartbeat CPU  0 instructions:  511000000 cycles: 2384627279 heartbeat IPC: 0.53193 cumulative IPC: 0.18059 (Simulation time: 0 hr 42 min 45 sec) 
Heartbeat CPU  0 instructions:  512000000 cycles: 2386521481 heartbeat IPC: 0.52793 cumulative IPC: 0.18088 (Simulation time: 0 hr 42 min 48 sec) 
Heartbeat CPU  0 instructions:  513000003 cycles: 2388427031 heartbeat IPC: 0.52478 cumulative IPC: 0.18117 (Simulation time: 0 hr 42 min 52 sec) 
Heartbeat CPU  0 instructions:  514000000 cycles: 2390544188 heartbeat IPC: 0.47233 cumulative IPC: 0.18144 (Simulation time: 0 hr 42 min 55 sec) 
Heartbeat CPU  0 instructions:  515000001 cycles: 2392479016 heartbeat IPC: 0.51684 cumulative IPC: 0.18172 (Simulation time: 0 hr 42 min 59 sec) 
Heartbeat CPU  0 instructions:  516000000 cycles: 2394433210 heartbeat IPC: 0.51172 cumulative IPC: 0.18201 (Simulation time: 0 hr 43 min 2 sec) 
Heartbeat CPU  0 instructions:  517000002 cycles: 2396588946 heartbeat IPC: 0.46388 cumulative IPC: 0.18227 (Simulation time: 0 hr 43 min 6 sec) 
Heartbeat CPU  0 instructions:  518000000 cycles: 2398523611 heartbeat IPC: 0.51688 cumulative IPC: 0.18256 (Simulation time: 0 hr 43 min 9 sec) 
Heartbeat CPU  0 instructions:  519000001 cycles: 2400422363 heartbeat IPC: 0.52666 cumulative IPC: 0.18284 (Simulation time: 0 hr 43 min 13 sec) 
Heartbeat CPU  0 instructions:  520000000 cycles: 2402295936 heartbeat IPC: 0.53374 cumulative IPC: 0.18313 (Simulation time: 0 hr 43 min 16 sec) 
Heartbeat CPU  0 instructions:  521000002 cycles: 2404011820 heartbeat IPC: 0.58279 cumulative IPC: 0.18343 (Simulation time: 0 hr 43 min 19 sec) 
Heartbeat CPU  0 instructions:  522000001 cycles: 2405870526 heartbeat IPC: 0.53801 cumulative IPC: 0.18371 (Simulation time: 0 hr 43 min 22 sec) 
Heartbeat CPU  0 instructions:  523000001 cycles: 2407767236 heartbeat IPC: 0.52723 cumulative IPC: 0.18400 (Simulation time: 0 hr 43 min 25 sec) 
Heartbeat CPU  0 instructions:  524000000 cycles: 2409693515 heartbeat IPC: 0.51914 cumulative IPC: 0.18428 (Simulation time: 0 hr 43 min 29 sec) 
Heartbeat CPU  0 instructions:  525000001 cycles: 2411586192 heartbeat IPC: 0.52835 cumulative IPC: 0.18456 (Simulation time: 0 hr 43 min 32 sec) 
Heartbeat CPU  0 instructions:  526000000 cycles: 2413555081 heartbeat IPC: 0.50790 cumulative IPC: 0.18484 (Simulation time: 0 hr 43 min 35 sec) 
Heartbeat CPU  0 instructions:  527000001 cycles: 2415502354 heartbeat IPC: 0.51354 cumulative IPC: 0.18511 (Simulation time: 0 hr 43 min 39 sec) 
Heartbeat CPU  0 instructions:  528000000 cycles: 2417515644 heartbeat IPC: 0.49670 cumulative IPC: 0.18538 (Simulation time: 0 hr 43 min 42 sec) 
Heartbeat CPU  0 instructions:  529000000 cycles: 2419364930 heartbeat IPC: 0.54075 cumulative IPC: 0.18567 (Simulation time: 0 hr 43 min 45 sec) 
Heartbeat CPU  0 instructions:  530000000 cycles: 2421288567 heartbeat IPC: 0.51985 cumulative IPC: 0.18595 (Simulation time: 0 hr 43 min 49 sec) 
Heartbeat CPU  0 instructions:  531000001 cycles: 2423173580 heartbeat IPC: 0.53050 cumulative IPC: 0.18623 (Simulation time: 0 hr 43 min 52 sec) 
Heartbeat CPU  0 instructions:  532000000 cycles: 2425182018 heartbeat IPC: 0.49790 cumulative IPC: 0.18650 (Simulation time: 0 hr 43 min 56 sec) 
Heartbeat CPU  0 instructions:  533000000 cycles: 2426957456 heartbeat IPC: 0.56324 cumulative IPC: 0.18679 (Simulation time: 0 hr 43 min 59 sec) 
Heartbeat CPU  0 instructions:  534000000 cycles: 2429099300 heartbeat IPC: 0.46689 cumulative IPC: 0.18705 (Simulation time: 0 hr 44 min 2 sec) 
Heartbeat CPU  0 instructions:  535000002 cycles: 2430751773 heartbeat IPC: 0.60515 cumulative IPC: 0.18734 (Simulation time: 0 hr 44 min 5 sec) 
Heartbeat CPU  0 instructions:  536000000 cycles: 2432556659 heartbeat IPC: 0.55405 cumulative IPC: 0.18763 (Simulation time: 0 hr 44 min 8 sec) 
Heartbeat CPU  0 instructions:  537000000 cycles: 2434359689 heartbeat IPC: 0.55462 cumulative IPC: 0.18791 (Simulation time: 0 hr 44 min 12 sec) 
Heartbeat CPU  0 instructions:  538000000 cycles: 2436157283 heartbeat IPC: 0.55630 cumulative IPC: 0.18820 (Simulation time: 0 hr 44 min 15 sec) 
Heartbeat CPU  0 instructions:  539000000 cycles: 2437968777 heartbeat IPC: 0.55203 cumulative IPC: 0.18848 (Simulation time: 0 hr 44 min 18 sec) 
Heartbeat CPU  0 instructions:  540000000 cycles: 2439612591 heartbeat IPC: 0.60834 cumulative IPC: 0.18878 (Simulation time: 0 hr 44 min 21 sec) 
Heartbeat CPU  0 instructions:  541000003 cycles: 2441648001 heartbeat IPC: 0.49130 cumulative IPC: 0.18904 (Simulation time: 0 hr 44 min 25 sec) 
Heartbeat CPU  0 instructions:  542000001 cycles: 2443608553 heartbeat IPC: 0.51006 cumulative IPC: 0.18931 (Simulation time: 0 hr 44 min 28 sec) 
Heartbeat CPU  0 instructions:  543000000 cycles: 2445529832 heartbeat IPC: 0.52049 cumulative IPC: 0.18958 (Simulation time: 0 hr 44 min 31 sec) 
Heartbeat CPU  0 instructions:  544000000 cycles: 2447346211 heartbeat IPC: 0.55055 cumulative IPC: 0.18986 (Simulation time: 0 hr 44 min 35 sec) 
Heartbeat CPU  0 instructions:  545000000 cycles: 2449279781 heartbeat IPC: 0.51718 cumulative IPC: 0.19013 (Simulation time: 0 hr 44 min 38 sec) 
Heartbeat CPU  0 instructions:  546000003 cycles: 2451255114 heartbeat IPC: 0.50625 cumulative IPC: 0.19040 (Simulation time: 0 hr 44 min 41 sec) 
Heartbeat CPU  0 instructions:  547000000 cycles: 2453070034 heartbeat IPC: 0.55099 cumulative IPC: 0.19068 (Simulation time: 0 hr 44 min 45 sec) 
Heartbeat CPU  0 instructions:  548000000 cycles: 2454919698 heartbeat IPC: 0.54064 cumulative IPC: 0.19095 (Simulation time: 0 hr 44 min 48 sec) 
Heartbeat CPU  0 instructions:  549000000 cycles: 2456792244 heartbeat IPC: 0.53403 cumulative IPC: 0.19123 (Simulation time: 0 hr 44 min 51 sec) 
Heartbeat CPU  0 instructions:  550000000 cycles: 2458765768 heartbeat IPC: 0.50671 cumulative IPC: 0.19149 (Simulation time: 0 hr 44 min 55 sec) 
Heartbeat CPU  0 instructions:  551000003 cycles: 2460620132 heartbeat IPC: 0.53927 cumulative IPC: 0.19177 (Simulation time: 0 hr 44 min 58 sec) 
Heartbeat CPU  0 instructions:  552000000 cycles: 2462454636 heartbeat IPC: 0.54510 cumulative IPC: 0.19204 (Simulation time: 0 hr 45 min 1 sec) 
Heartbeat CPU  0 instructions:  553000000 cycles: 2464343930 heartbeat IPC: 0.52930 cumulative IPC: 0.19231 (Simulation time: 0 hr 45 min 4 sec) 
Heartbeat CPU  0 instructions:  554000002 cycles: 2466270486 heartbeat IPC: 0.51906 cumulative IPC: 0.19258 (Simulation time: 0 hr 45 min 7 sec) 
Heartbeat CPU  0 instructions:  555000002 cycles: 2468207746 heartbeat IPC: 0.51619 cumulative IPC: 0.19285 (Simulation time: 0 hr 45 min 11 sec) 
Heartbeat CPU  0 instructions:  556000000 cycles: 2470015954 heartbeat IPC: 0.55303 cumulative IPC: 0.19312 (Simulation time: 0 hr 45 min 14 sec) 
Heartbeat CPU  0 instructions:  557000001 cycles: 2471924486 heartbeat IPC: 0.52396 cumulative IPC: 0.19339 (Simulation time: 0 hr 45 min 17 sec) 
Heartbeat CPU  0 instructions:  558000003 cycles: 2473800877 heartbeat IPC: 0.53294 cumulative IPC: 0.19366 (Simulation time: 0 hr 45 min 20 sec) 
Heartbeat CPU  0 instructions:  559000002 cycles: 2475495511 heartbeat IPC: 0.59010 cumulative IPC: 0.19394 (Simulation time: 0 hr 45 min 23 sec) 
Heartbeat CPU  0 instructions:  560000000 cycles: 2477393135 heartbeat IPC: 0.52697 cumulative IPC: 0.19421 (Simulation time: 0 hr 45 min 26 sec) 
Heartbeat CPU  0 instructions:  561000003 cycles: 2479318345 heartbeat IPC: 0.51943 cumulative IPC: 0.19447 (Simulation time: 0 hr 45 min 29 sec) 
Heartbeat CPU  0 instructions:  562000001 cycles: 2481220942 heartbeat IPC: 0.52560 cumulative IPC: 0.19474 (Simulation time: 0 hr 45 min 33 sec) 
Heartbeat CPU  0 instructions:  563000001 cycles: 2483145001 heartbeat IPC: 0.51973 cumulative IPC: 0.19500 (Simulation time: 0 hr 45 min 36 sec) 
Heartbeat CPU  0 instructions:  564000000 cycles: 2485067586 heartbeat IPC: 0.52013 cumulative IPC: 0.19526 (Simulation time: 0 hr 45 min 39 sec) 
Heartbeat CPU  0 instructions:  565000002 cycles: 2486968773 heartbeat IPC: 0.52599 cumulative IPC: 0.19553 (Simulation time: 0 hr 45 min 42 sec) 
Heartbeat CPU  0 instructions:  566000003 cycles: 2488962696 heartbeat IPC: 0.50152 cumulative IPC: 0.19579 (Simulation time: 0 hr 45 min 46 sec) 
Heartbeat CPU  0 instructions:  567000000 cycles: 2490862871 heartbeat IPC: 0.52627 cumulative IPC: 0.19605 (Simulation time: 0 hr 45 min 49 sec) 
Heartbeat CPU  0 instructions:  568000000 cycles: 2492717934 heartbeat IPC: 0.53907 cumulative IPC: 0.19632 (Simulation time: 0 hr 45 min 52 sec) 
Heartbeat CPU  0 instructions:  569000001 cycles: 2494627748 heartbeat IPC: 0.52361 cumulative IPC: 0.19658 (Simulation time: 0 hr 45 min 55 sec) 
Heartbeat CPU  0 instructions:  570000001 cycles: 2496642117 heartbeat IPC: 0.49643 cumulative IPC: 0.19683 (Simulation time: 0 hr 45 min 59 sec) 
Heartbeat CPU  0 instructions:  571000000 cycles: 2498429805 heartbeat IPC: 0.55938 cumulative IPC: 0.19710 (Simulation time: 0 hr 46 min 2 sec) 
Heartbeat CPU  0 instructions:  572000000 cycles: 2500375704 heartbeat IPC: 0.51390 cumulative IPC: 0.19736 (Simulation time: 0 hr 46 min 5 sec) 
Heartbeat CPU  0 instructions:  573000001 cycles: 2502227131 heartbeat IPC: 0.54012 cumulative IPC: 0.19762 (Simulation time: 0 hr 46 min 8 sec) 
Heartbeat CPU  0 instructions:  574000000 cycles: 2504124362 heartbeat IPC: 0.52708 cumulative IPC: 0.19789 (Simulation time: 0 hr 46 min 11 sec) 
Heartbeat CPU  0 instructions:  575000003 cycles: 2506013077 heartbeat IPC: 0.52946 cumulative IPC: 0.19815 (Simulation time: 0 hr 46 min 15 sec) 
Heartbeat CPU  0 instructions:  576000000 cycles: 2507914382 heartbeat IPC: 0.52595 cumulative IPC: 0.19841 (Simulation time: 0 hr 46 min 18 sec) 
Heartbeat CPU  0 instructions:  577000000 cycles: 2509650908 heartbeat IPC: 0.57586 cumulative IPC: 0.19868 (Simulation time: 0 hr 46 min 21 sec) 
Heartbeat CPU  0 instructions:  578000002 cycles: 2511528614 heartbeat IPC: 0.53257 cumulative IPC: 0.19894 (Simulation time: 0 hr 46 min 24 sec) 
Heartbeat CPU  0 instructions:  579000003 cycles: 2513433707 heartbeat IPC: 0.52491 cumulative IPC: 0.19920 (Simulation time: 0 hr 46 min 27 sec) 
Heartbeat CPU  0 instructions:  580000000 cycles: 2515273191 heartbeat IPC: 0.54363 cumulative IPC: 0.19946 (Simulation time: 0 hr 46 min 30 sec) 
Heartbeat CPU  0 instructions:  581000001 cycles: 2516974073 heartbeat IPC: 0.58793 cumulative IPC: 0.19974 (Simulation time: 0 hr 46 min 33 sec) 
Heartbeat CPU  0 instructions:  582000000 cycles: 2518834123 heartbeat IPC: 0.53762 cumulative IPC: 0.20000 (Simulation time: 0 hr 46 min 36 sec) 
Heartbeat CPU  0 instructions:  583000000 cycles: 2520752823 heartbeat IPC: 0.52119 cumulative IPC: 0.20025 (Simulation time: 0 hr 46 min 39 sec) 
Heartbeat CPU  0 instructions:  584000000 cycles: 2522692073 heartbeat IPC: 0.51566 cumulative IPC: 0.20051 (Simulation time: 0 hr 46 min 43 sec) 
Heartbeat CPU  0 instructions:  585000001 cycles: 2524560772 heartbeat IPC: 0.53513 cumulative IPC: 0.20077 (Simulation time: 0 hr 46 min 46 sec) 
Heartbeat CPU  0 instructions:  586000001 cycles: 2526408768 heartbeat IPC: 0.54113 cumulative IPC: 0.20103 (Simulation time: 0 hr 46 min 49 sec) 
Heartbeat CPU  0 instructions:  587000001 cycles: 2528392549 heartbeat IPC: 0.50409 cumulative IPC: 0.20127 (Simulation time: 0 hr 46 min 53 sec) 
Heartbeat CPU  0 instructions:  588000000 cycles: 2530358016 heartbeat IPC: 0.50878 cumulative IPC: 0.20152 (Simulation time: 0 hr 46 min 56 sec) 
Heartbeat CPU  0 instructions:  589000002 cycles: 2532443268 heartbeat IPC: 0.47956 cumulative IPC: 0.20176 (Simulation time: 0 hr 46 min 59 sec) 
Heartbeat CPU  0 instructions:  590000001 cycles: 2534200775 heartbeat IPC: 0.56899 cumulative IPC: 0.20203 (Simulation time: 0 hr 47 min 2 sec) 
Heartbeat CPU  0 instructions:  591000001 cycles: 2536055155 heartbeat IPC: 0.53926 cumulative IPC: 0.20229 (Simulation time: 0 hr 47 min 6 sec) 
Heartbeat CPU  0 instructions:  592000000 cycles: 2537945171 heartbeat IPC: 0.52910 cumulative IPC: 0.20254 (Simulation time: 0 hr 47 min 9 sec) 
Heartbeat CPU  0 instructions:  593000000 cycles: 2539837920 heartbeat IPC: 0.52833 cumulative IPC: 0.20279 (Simulation time: 0 hr 47 min 12 sec) 
Heartbeat CPU  0 instructions:  594000003 cycles: 2541726292 heartbeat IPC: 0.52956 cumulative IPC: 0.20305 (Simulation time: 0 hr 47 min 15 sec) 
Heartbeat CPU  0 instructions:  595000000 cycles: 2543552449 heartbeat IPC: 0.54760 cumulative IPC: 0.20331 (Simulation time: 0 hr 47 min 18 sec) 
Heartbeat CPU  0 instructions:  596000000 cycles: 2545341692 heartbeat IPC: 0.55890 cumulative IPC: 0.20357 (Simulation time: 0 hr 47 min 21 sec) 
Heartbeat CPU  0 instructions:  597000001 cycles: 2547247183 heartbeat IPC: 0.52480 cumulative IPC: 0.20382 (Simulation time: 0 hr 47 min 25 sec) 
Heartbeat CPU  0 instructions:  598000001 cycles: 2549096957 heartbeat IPC: 0.54061 cumulative IPC: 0.20407 (Simulation time: 0 hr 47 min 28 sec) 
Heartbeat CPU  0 instructions:  599000003 cycles: 2550842653 heartbeat IPC: 0.57284 cumulative IPC: 0.20434 (Simulation time: 0 hr 47 min 31 sec) 
Heartbeat CPU  0 instructions:  600000000 cycles: 2552716152 heartbeat IPC: 0.53376 cumulative IPC: 0.20459 (Simulation time: 0 hr 47 min 34 sec) 
Finished CPU 0 instructions: 500000000 cycles: 2443912596 cumulative IPC: 0.20459 (Simulation time: 0 hr 47 min 34 sec) 

ChampSim completed all CPUs

[ROI Statistics]
Core_0_instructions 500000000
Core_0_cycles 2443912596
Core_0_IPC 0.20459

Core_0_branch_prediction_accuracy 95.55097
Core_0_branch_MPKI 5.00272
Core_0_average_ROB_occupancy_at_mispredict 120.35213

Core_0_L1D_total_access 237240100
Core_0_L1D_total_hit 200304056
Core_0_L1D_total_miss 36936044
Core_0_L1D_loads 154739369
Core_0_L1D_load_hit 133807774
Core_0_L1D_load_miss 20931595
Core_0_L1D_RFOs 82500731
Core_0_L1D_RFO_hit 66496282
Core_0_L1D_RFO_miss 16004449
Core_0_L1D_prefetches 0
Core_0_L1D_prefetch_hit 0
Core_0_L1D_prefetch_miss 0
Core_0_L1D_writebacks 0
Core_0_L1D_writeback_hit 0
Core_0_L1D_writeback_miss 0
Core_0_L1D_prefetch_requested 0
Core_0_L1D_prefetch_issued 0
Core_0_L1D_prefetch_useful 0
Core_0_L1D_prefetch_useless 0
Core_0_L1D_prefetch_late 0
Core_0_L1D_average_miss_latency 251.22733

Core_0_L1I_total_access 123100625
Core_0_L1I_total_hit 123100399
Core_0_L1I_total_miss 226
Core_0_L1I_loads 123100625
Core_0_L1I_load_hit 123100399
Core_0_L1I_load_miss 226
Core_0_L1I_RFOs 0
Core_0_L1I_RFO_hit 0
Core_0_L1I_RFO_miss 0
Core_0_L1I_prefetches 0
Core_0_L1I_prefetch_hit 0
Core_0_L1I_prefetch_miss 0
Core_0_L1I_writebacks 0
Core_0_L1I_writeback_hit 0
Core_0_L1I_writeback_miss 0
Core_0_L1I_prefetch_requested 0
Core_0_L1I_prefetch_issued 0
Core_0_L1I_prefetch_useful 0
Core_0_L1I_prefetch_useless 0
Core_0_L1I_prefetch_late 0
Core_0_L1I_average_miss_latency 194.74779

Core_0_L2C_total_access 87294211
Core_0_L2C_total_hit 50731178
Core_0_L2C_total_miss 36563033
Core_0_L2C_loads 20931388
Core_0_L2C_load_hit 15006830
Core_0_L2C_load_miss 5924558
Core_0_L2C_RFOs 16004446
Core_0_L2C_RFO_hit 191481
Core_0_L2C_RFO_miss 15812965
Core_0_L2C_prefetches 18250491
Core_0_L2C_prefetch_hit 3431489
Core_0_L2C_prefetch_miss 14819002
Core_0_L2C_writebacks 32107886
Core_0_L2C_writeback_hit 32101378
Core_0_L2C_writeback_miss 6508
Core_0_L2C_prefetch_requested 24614676
Core_0_L2C_prefetch_issued 24614664
Core_0_L2C_prefetch_useful 13413926
Core_0_L2C_prefetch_useless 4031632
Core_0_L2C_prefetch_late 951636
Core_0_L2C_average_miss_latency 349.81839

Core_0_LLC_total_access 67990017
Core_0_LLC_total_hit 16864876
Core_0_LLC_total_miss 51125141
Core_0_LLC_loads 4975584
Core_0_LLC_load_hit 4082835
Core_0_LLC_load_miss 892749
Core_0_LLC_RFOs 15812942
Core_0_LLC_RFO_hit 512676
Core_0_LLC_RFO_miss 15300266
Core_0_LLC_prefetches 17485410
Core_0_LLC_prefetch_hit 6020042
Core_0_LLC_prefetch_miss 11465368
Core_0_LLC_writebacks 29716081
Core_0_LLC_writeback_hit 6249323
Core_0_LLC_writeback_miss 23466758
Core_0_LLC_prefetch_requested 0
Core_0_LLC_prefetch_issued 0
Core_0_LLC_prefetch_useful 98132
Core_0_LLC_prefetch_useless 13985764
Core_0_LLC_prefetch_late 2111
Core_0_LLC_average_miss_latency 230.29964

Core_0_major_page_fault 0
Core_0_minor_page_fault 401483

Channel_0_RQ_row_buffer_hit 1029460
Channel_0_RQ_row_buffer_miss 26627932
Channel_0_WQ_row_buffer_hit 2280911
Channel_0_WQ_row_buffer_miss 22065538
Channel_0_WQ_full 4572
Channel_0_dbus_congested 31400934

avg_congested_cycle 11
