*************************************************
   ChampSim Multicore Out-of-Order Simulator
   Last compiled: Jan 20 2021 12:09:13
*************************************************

trace_0 traces/482.sphinx3-1100B.champsimtrace.xz
Initialize SHIP state
warmup_instructions 100000000
simulation_instructions 500000000
champsim_seed 260

num_cpus 1
cpu_freq 4000
dram_io_freq 2400
page_size 4096
block_size 64
max_read_per_cycle 8
max_fill_per_cycle 1
dram_channels 1
dram_ranks 1
dram_banks 8
dram_rows 65536
dram_columns 128
dram_row_size 8
dram_size 4096
dram_pages 1048576

fetch_width 6
decode_width 6
exec_width 4
lq_width 2
sq_width 2
retire_width 4
scheduler_size 128
branch_mispredict_penalty 20
rob_size 256
lq_size 72
sq_size 56
num_instr_destinations_sparc 4
num_instr_destinations 2
num_instr_sources 4

itlb_set 16
itlb_way 8
itlb_rq_size 16
itlb_wq_size 16
itlb_pq_size 0
itlb_mshr_size 8
itlb_latency 1

dtlb_set 16
dtlb_way 4
dtlb_rq_size 16
dtlb_wq_size 16
dtlb_pq_size 0
dtlb_mshr_size 8
dtlb_latency 1

stlb_set 128
stlb_way 12
stlb_rq_size 32
stlb_wq_size 32
stlb_pq_size 0
stlb_mshr_size 16
stlb_latency 8

l1i_size 32
l1i_set 64
l1i_way 8
l1i_rq_size 64
l1i_wq_size 64
l1i_pq_size 8
l1i_mshr_size 8
l1i_latency 1

l1d_size 32
l1d_set 64
l1d_way 8
l1d_rq_size 64
l1d_wq_size 64
l1d_pq_size 8
l1d_mshr_size 16
l1d_latency 4

l2c_size 512
l2c_set 1024
l2c_way 8
l2c_rq_size 32
l2c_wq_size 32
l2c_pq_size 16
l2c_mshr_size 32
l2c_latency 10

llc_size 2048
llc_set 2048
llc_way 16
llc_rq_size 32
llc_wq_size 32
llc_pq_size 32
llc_mshr_size 64
llc_latency 20

dram_channel_width 8
dram_wq_size 64
dram_rq_size 64
tRP 15
tRCD 15
tCAS 12.5
dram_dbus_turn_around_time 30
dram_write_high_wm 56
dram_write_low_wm 48
min_dram_writes_per_switch 16
dram_mtps 2400
dram_dbus_return_time 13


Heartbeat CPU  0 instructions:    1000001 cycles:     366323 heartbeat IPC: 2.72983 cumulative IPC: 2.72983 (Simulation time: 0 hr 0 min 1 sec) 
Heartbeat CPU  0 instructions:    2000003 cycles:     793296 heartbeat IPC: 2.34207 cumulative IPC: 2.52113 (Simulation time: 0 hr 0 min 3 sec) 
Heartbeat CPU  0 instructions:    3000001 cycles:    1250922 heartbeat IPC: 2.18519 cumulative IPC: 2.39823 (Simulation time: 0 hr 0 min 4 sec) 
Heartbeat CPU  0 instructions:    4000000 cycles:    1733292 heartbeat IPC: 2.07310 cumulative IPC: 2.30775 (Simulation time: 0 hr 0 min 6 sec) 
Heartbeat CPU  0 instructions:    5000000 cycles:    2175664 heartbeat IPC: 2.26054 cumulative IPC: 2.29815 (Simulation time: 0 hr 0 min 7 sec) 
Heartbeat CPU  0 instructions:    6000001 cycles:    2541362 heartbeat IPC: 2.73450 cumulative IPC: 2.36094 (Simulation time: 0 hr 0 min 9 sec) 
Heartbeat CPU  0 instructions:    7000000 cycles:    2931452 heartbeat IPC: 2.56351 cumulative IPC: 2.38790 (Simulation time: 0 hr 0 min 10 sec) 
Heartbeat CPU  0 instructions:    8000000 cycles:    3389754 heartbeat IPC: 2.18197 cumulative IPC: 2.36005 (Simulation time: 0 hr 0 min 11 sec) 
Heartbeat CPU  0 instructions:    9000000 cycles:    3847059 heartbeat IPC: 2.18672 cumulative IPC: 2.33945 (Simulation time: 0 hr 0 min 13 sec) 
Heartbeat CPU  0 instructions:   10000000 cycles:    4337334 heartbeat IPC: 2.03967 cumulative IPC: 2.30556 (Simulation time: 0 hr 0 min 14 sec) 
Heartbeat CPU  0 instructions:   11000001 cycles:    4708356 heartbeat IPC: 2.69526 cumulative IPC: 2.33627 (Simulation time: 0 hr 0 min 16 sec) 
Heartbeat CPU  0 instructions:   12000000 cycles:    5074319 heartbeat IPC: 2.73251 cumulative IPC: 2.36485 (Simulation time: 0 hr 0 min 17 sec) 
Heartbeat CPU  0 instructions:   13000001 cycles:    5523212 heartbeat IPC: 2.22770 cumulative IPC: 2.35370 (Simulation time: 0 hr 0 min 19 sec) 
Heartbeat CPU  0 instructions:   14000000 cycles:    5980616 heartbeat IPC: 2.18625 cumulative IPC: 2.34090 (Simulation time: 0 hr 0 min 20 sec) 
Heartbeat CPU  0 instructions:   15000000 cycles:    6462738 heartbeat IPC: 2.07416 cumulative IPC: 2.32100 (Simulation time: 0 hr 0 min 21 sec) 
Heartbeat CPU  0 instructions:   16000000 cycles:    6872099 heartbeat IPC: 2.44283 cumulative IPC: 2.32826 (Simulation time: 0 hr 0 min 23 sec) 
Heartbeat CPU  0 instructions:   17000003 cycles:    7237999 heartbeat IPC: 2.73300 cumulative IPC: 2.34872 (Simulation time: 0 hr 0 min 24 sec) 
Heartbeat CPU  0 instructions:   18000003 cycles:    7649298 heartbeat IPC: 2.43132 cumulative IPC: 2.35316 (Simulation time: 0 hr 0 min 26 sec) 
Heartbeat CPU  0 instructions:   19000003 cycles:    8106861 heartbeat IPC: 2.18549 cumulative IPC: 2.34369 (Simulation time: 0 hr 0 min 27 sec) 
Heartbeat CPU  0 instructions:   20000000 cycles:    8574749 heartbeat IPC: 2.13726 cumulative IPC: 2.33243 (Simulation time: 0 hr 0 min 29 sec) 
Heartbeat CPU  0 instructions:   21000002 cycles:    9033738 heartbeat IPC: 2.17871 cumulative IPC: 2.32462 (Simulation time: 0 hr 0 min 30 sec) 
Heartbeat CPU  0 instructions:   22000003 cycles:    9399411 heartbeat IPC: 2.73469 cumulative IPC: 2.34057 (Simulation time: 0 hr 0 min 32 sec) 
Heartbeat CPU  0 instructions:   23000001 cycles:    9778984 heartbeat IPC: 2.63453 cumulative IPC: 2.35198 (Simulation time: 0 hr 0 min 33 sec) 
Heartbeat CPU  0 instructions:   24000000 cycles:   10234104 heartbeat IPC: 2.19722 cumulative IPC: 2.34510 (Simulation time: 0 hr 0 min 35 sec) 
Heartbeat CPU  0 instructions:   25000002 cycles:   10688965 heartbeat IPC: 2.19848 cumulative IPC: 2.33886 (Simulation time: 0 hr 0 min 36 sec) 
Heartbeat CPU  0 instructions:   26000002 cycles:   11167766 heartbeat IPC: 2.08855 cumulative IPC: 2.32813 (Simulation time: 0 hr 0 min 37 sec) 
Heartbeat CPU  0 instructions:   27000001 cycles:   11559980 heartbeat IPC: 2.54963 cumulative IPC: 2.33564 (Simulation time: 0 hr 0 min 39 sec) 
Heartbeat CPU  0 instructions:   28000000 cycles:   11925777 heartbeat IPC: 2.73375 cumulative IPC: 2.34786 (Simulation time: 0 hr 0 min 40 sec) 
Heartbeat CPU  0 instructions:   29000001 cycles:   12361693 heartbeat IPC: 2.29402 cumulative IPC: 2.34596 (Simulation time: 0 hr 0 min 42 sec) 
Heartbeat CPU  0 instructions:   30000003 cycles:   12814931 heartbeat IPC: 2.20635 cumulative IPC: 2.34102 (Simulation time: 0 hr 0 min 43 sec) 
Heartbeat CPU  0 instructions:   31000001 cycles:   13268594 heartbeat IPC: 2.20427 cumulative IPC: 2.33634 (Simulation time: 0 hr 0 min 45 sec) 
Heartbeat CPU  0 instructions:   32000000 cycles:   13751828 heartbeat IPC: 2.06939 cumulative IPC: 2.32696 (Simulation time: 0 hr 0 min 46 sec) 
Heartbeat CPU  0 instructions:   33000003 cycles:   14151959 heartbeat IPC: 2.49919 cumulative IPC: 2.33183 (Simulation time: 0 hr 0 min 47 sec) 
Heartbeat CPU  0 instructions:   34000003 cycles:   14517747 heartbeat IPC: 2.73382 cumulative IPC: 2.34196 (Simulation time: 0 hr 0 min 49 sec) 
Heartbeat CPU  0 instructions:   35000000 cycles:   14944610 heartbeat IPC: 2.34266 cumulative IPC: 2.34198 (Simulation time: 0 hr 0 min 50 sec) 
Heartbeat CPU  0 instructions:   36000000 cycles:   15398192 heartbeat IPC: 2.20467 cumulative IPC: 2.33794 (Simulation time: 0 hr 0 min 52 sec) 
Heartbeat CPU  0 instructions:   37000000 cycles:   15851982 heartbeat IPC: 2.20366 cumulative IPC: 2.33409 (Simulation time: 0 hr 0 min 53 sec) 
Heartbeat CPU  0 instructions:   38000003 cycles:   16339627 heartbeat IPC: 2.05068 cumulative IPC: 2.32563 (Simulation time: 0 hr 0 min 55 sec) 
Heartbeat CPU  0 instructions:   39000003 cycles:   16746216 heartbeat IPC: 2.45949 cumulative IPC: 2.32888 (Simulation time: 0 hr 0 min 56 sec) 
Heartbeat CPU  0 instructions:   40000000 cycles:   17112073 heartbeat IPC: 2.73330 cumulative IPC: 2.33753 (Simulation time: 0 hr 0 min 58 sec) 
Heartbeat CPU  0 instructions:   41000003 cycles:   17531788 heartbeat IPC: 2.38258 cumulative IPC: 2.33861 (Simulation time: 0 hr 0 min 59 sec) 
Heartbeat CPU  0 instructions:   42000000 cycles:   17989497 heartbeat IPC: 2.18479 cumulative IPC: 2.33470 (Simulation time: 0 hr 1 min 0 sec) 
Heartbeat CPU  0 instructions:   43000001 cycles:   18445450 heartbeat IPC: 2.19321 cumulative IPC: 2.33120 (Simulation time: 0 hr 1 min 2 sec) 
Heartbeat CPU  0 instructions:   44000000 cycles:   18935492 heartbeat IPC: 2.04064 cumulative IPC: 2.32368 (Simulation time: 0 hr 1 min 3 sec) 
Heartbeat CPU  0 instructions:   45000002 cycles:   19347111 heartbeat IPC: 2.42944 cumulative IPC: 2.32593 (Simulation time: 0 hr 1 min 5 sec) 
Heartbeat CPU  0 instructions:   46000000 cycles:   19713049 heartbeat IPC: 2.73270 cumulative IPC: 2.33348 (Simulation time: 0 hr 1 min 6 sec) 
Heartbeat CPU  0 instructions:   47000002 cycles:   20125540 heartbeat IPC: 2.42430 cumulative IPC: 2.33534 (Simulation time: 0 hr 1 min 8 sec) 
Heartbeat CPU  0 instructions:   48000000 cycles:   20584837 heartbeat IPC: 2.17724 cumulative IPC: 2.33181 (Simulation time: 0 hr 1 min 9 sec) 
Heartbeat CPU  0 instructions:   49000003 cycles:   21041048 heartbeat IPC: 2.19197 cumulative IPC: 2.32878 (Simulation time: 0 hr 1 min 10 sec) 
Heartbeat CPU  0 instructions:   50000003 cycles:   21551365 heartbeat IPC: 1.95957 cumulative IPC: 2.32004 (Simulation time: 0 hr 1 min 12 sec) 
Heartbeat CPU  0 instructions:   51000002 cycles:   22013593 heartbeat IPC: 2.16343 cumulative IPC: 2.31675 (Simulation time: 0 hr 1 min 13 sec) 
Heartbeat CPU  0 instructions:   52000000 cycles:   22385439 heartbeat IPC: 2.68928 cumulative IPC: 2.32294 (Simulation time: 0 hr 1 min 15 sec) 
Heartbeat CPU  0 instructions:   53000001 cycles:   22751434 heartbeat IPC: 2.73228 cumulative IPC: 2.32952 (Simulation time: 0 hr 1 min 16 sec) 
Heartbeat CPU  0 instructions:   54000001 cycles:   23200941 heartbeat IPC: 2.22466 cumulative IPC: 2.32749 (Simulation time: 0 hr 1 min 18 sec) 
Heartbeat CPU  0 instructions:   55000001 cycles:   23654262 heartbeat IPC: 2.20594 cumulative IPC: 2.32516 (Simulation time: 0 hr 1 min 19 sec) 
Heartbeat CPU  0 instructions:   56000000 cycles:   24110685 heartbeat IPC: 2.19095 cumulative IPC: 2.32262 (Simulation time: 0 hr 1 min 21 sec) 
Heartbeat CPU  0 instructions:   57000003 cycles:   24596152 heartbeat IPC: 2.05988 cumulative IPC: 2.31744 (Simulation time: 0 hr 1 min 22 sec) 
Heartbeat CPU  0 instructions:   58000001 cycles:   24988636 heartbeat IPC: 2.54787 cumulative IPC: 2.32106 (Simulation time: 0 hr 1 min 23 sec) 
Heartbeat CPU  0 instructions:   59000001 cycles:   25354586 heartbeat IPC: 2.73261 cumulative IPC: 2.32700 (Simulation time: 0 hr 1 min 25 sec) 
Heartbeat CPU  0 instructions:   60000000 cycles:   25793668 heartbeat IPC: 2.27748 cumulative IPC: 2.32615 (Simulation time: 0 hr 1 min 26 sec) 
Heartbeat CPU  0 instructions:   61000000 cycles:   26249202 heartbeat IPC: 2.19523 cumulative IPC: 2.32388 (Simulation time: 0 hr 1 min 28 sec) 
Heartbeat CPU  0 instructions:   62000000 cycles:   26706411 heartbeat IPC: 2.18718 cumulative IPC: 2.32154 (Simulation time: 0 hr 1 min 29 sec) 
Heartbeat CPU  0 instructions:   63000000 cycles:   27193692 heartbeat IPC: 2.05220 cumulative IPC: 2.31671 (Simulation time: 0 hr 1 min 30 sec) 
Heartbeat CPU  0 instructions:   64000000 cycles:   27594996 heartbeat IPC: 2.49188 cumulative IPC: 2.31926 (Simulation time: 0 hr 1 min 32 sec) 
Heartbeat CPU  0 instructions:   65000000 cycles:   27960980 heartbeat IPC: 2.73236 cumulative IPC: 2.32467 (Simulation time: 0 hr 1 min 34 sec) 
Heartbeat CPU  0 instructions:   66000001 cycles:   28385727 heartbeat IPC: 2.35435 cumulative IPC: 2.32511 (Simulation time: 0 hr 1 min 35 sec) 
Heartbeat CPU  0 instructions:   67000003 cycles:   28845244 heartbeat IPC: 2.17620 cumulative IPC: 2.32274 (Simulation time: 0 hr 1 min 36 sec) 
Heartbeat CPU  0 instructions:   68000000 cycles:   29298893 heartbeat IPC: 2.20434 cumulative IPC: 2.32091 (Simulation time: 0 hr 1 min 38 sec) 
Heartbeat CPU  0 instructions:   69000001 cycles:   29785709 heartbeat IPC: 2.05417 cumulative IPC: 2.31655 (Simulation time: 0 hr 1 min 39 sec) 
Heartbeat CPU  0 instructions:   70000001 cycles:   30194143 heartbeat IPC: 2.44838 cumulative IPC: 2.31833 (Simulation time: 0 hr 1 min 41 sec) 
Heartbeat CPU  0 instructions:   71000001 cycles:   30560013 heartbeat IPC: 2.73321 cumulative IPC: 2.32330 (Simulation time: 0 hr 1 min 42 sec) 
Heartbeat CPU  0 instructions:   72000000 cycles:   30975273 heartbeat IPC: 2.40813 cumulative IPC: 2.32443 (Simulation time: 0 hr 1 min 44 sec) 
Heartbeat CPU  0 instructions:   73000000 cycles:   31431950 heartbeat IPC: 2.18973 cumulative IPC: 2.32248 (Simulation time: 0 hr 1 min 45 sec) 
Heartbeat CPU  0 instructions:   74000002 cycles:   31887068 heartbeat IPC: 2.19724 cumulative IPC: 2.32069 (Simulation time: 0 hr 1 min 46 sec) 
Heartbeat CPU  0 instructions:   75000002 cycles:   32375443 heartbeat IPC: 2.04761 cumulative IPC: 2.31657 (Simulation time: 0 hr 1 min 48 sec) 
Heartbeat CPU  0 instructions:   76000000 cycles:   32793600 heartbeat IPC: 2.39144 cumulative IPC: 2.31753 (Simulation time: 0 hr 1 min 49 sec) 
Heartbeat CPU  0 instructions:   77000003 cycles:   33159577 heartbeat IPC: 2.73242 cumulative IPC: 2.32210 (Simulation time: 0 hr 1 min 51 sec) 
Heartbeat CPU  0 instructions:   78000002 cycles:   33567239 heartbeat IPC: 2.45301 cumulative IPC: 2.32369 (Simulation time: 0 hr 1 min 52 sec) 
Heartbeat CPU  0 instructions:   79000000 cycles:   34022450 heartbeat IPC: 2.19678 cumulative IPC: 2.32200 (Simulation time: 0 hr 1 min 54 sec) 
Heartbeat CPU  0 instructions:   80000000 cycles:   34479111 heartbeat IPC: 2.18981 cumulative IPC: 2.32025 (Simulation time: 0 hr 1 min 55 sec) 
Heartbeat CPU  0 instructions:   81000001 cycles:   34937516 heartbeat IPC: 2.18148 cumulative IPC: 2.31842 (Simulation time: 0 hr 1 min 56 sec) 
Heartbeat CPU  0 instructions:   82000001 cycles:   35424555 heartbeat IPC: 2.05322 cumulative IPC: 2.31478 (Simulation time: 0 hr 1 min 58 sec) 
Heartbeat CPU  0 instructions:   83000001 cycles:   35794654 heartbeat IPC: 2.70198 cumulative IPC: 2.31878 (Simulation time: 0 hr 1 min 59 sec) 
Heartbeat CPU  0 instructions:   84000000 cycles:   36161533 heartbeat IPC: 2.72569 cumulative IPC: 2.32291 (Simulation time: 0 hr 2 min 1 sec) 
Heartbeat CPU  0 instructions:   85000003 cycles:   36617182 heartbeat IPC: 2.19468 cumulative IPC: 2.32131 (Simulation time: 0 hr 2 min 2 sec) 
Heartbeat CPU  0 instructions:   86000001 cycles:   37072512 heartbeat IPC: 2.19620 cumulative IPC: 2.31978 (Simulation time: 0 hr 2 min 4 sec) 
Heartbeat CPU  0 instructions:   87000003 cycles:   37529342 heartbeat IPC: 2.18900 cumulative IPC: 2.31819 (Simulation time: 0 hr 2 min 5 sec) 
Heartbeat CPU  0 instructions:   88000000 cycles:   38018895 heartbeat IPC: 2.04267 cumulative IPC: 2.31464 (Simulation time: 0 hr 2 min 6 sec) 
Heartbeat CPU  0 instructions:   89000002 cycles:   38421453 heartbeat IPC: 2.48412 cumulative IPC: 2.31641 (Simulation time: 0 hr 2 min 8 sec) 
Heartbeat CPU  0 instructions:   90000002 cycles:   38787303 heartbeat IPC: 2.73336 cumulative IPC: 2.32035 (Simulation time: 0 hr 2 min 10 sec) 
Heartbeat CPU  0 instructions:   91000002 cycles:   39207731 heartbeat IPC: 2.37853 cumulative IPC: 2.32097 (Simulation time: 0 hr 2 min 11 sec) 
Heartbeat CPU  0 instructions:   92000000 cycles:   39660984 heartbeat IPC: 2.20627 cumulative IPC: 2.31966 (Simulation time: 0 hr 2 min 12 sec) 
Heartbeat CPU  0 instructions:   93000002 cycles:   40117188 heartbeat IPC: 2.19201 cumulative IPC: 2.31821 (Simulation time: 0 hr 2 min 14 sec) 
Heartbeat CPU  0 instructions:   94000001 cycles:   40605784 heartbeat IPC: 2.04668 cumulative IPC: 2.31494 (Simulation time: 0 hr 2 min 15 sec) 
Heartbeat CPU  0 instructions:   95000003 cycles:   40976921 heartbeat IPC: 2.69443 cumulative IPC: 2.31838 (Simulation time: 0 hr 2 min 17 sec) 
Heartbeat CPU  0 instructions:   96000000 cycles:   41342825 heartbeat IPC: 2.73295 cumulative IPC: 2.32205 (Simulation time: 0 hr 2 min 18 sec) 
Heartbeat CPU  0 instructions:   97000001 cycles:   41788685 heartbeat IPC: 2.24286 cumulative IPC: 2.32120 (Simulation time: 0 hr 2 min 20 sec) 
Heartbeat CPU  0 instructions:   98000002 cycles:   42244692 heartbeat IPC: 2.19295 cumulative IPC: 2.31982 (Simulation time: 0 hr 2 min 21 sec) 
Heartbeat CPU  0 instructions:   99000003 cycles:   42730472 heartbeat IPC: 2.05855 cumulative IPC: 2.31685 (Simulation time: 0 hr 2 min 22 sec) 
Heartbeat CPU  0 instructions:  100000000 cycles:   43274483 heartbeat IPC: 1.83819 cumulative IPC: 2.31083 (Simulation time: 0 hr 2 min 24 sec) 

Warmup complete CPU  0 instructions:  100000001 cycles:   43274484 (Simulation time: 0 hr 2 min 24 sec) 

Heartbeat CPU  0 instructions:  101000000 cycles:   44384710 heartbeat IPC: 0.90072 cumulative IPC: 0.90072 (Simulation time: 0 hr 2 min 26 sec) 
Heartbeat CPU  0 instructions:  102000003 cycles:   45972476 heartbeat IPC: 0.62982 cumulative IPC: 0.74129 (Simulation time: 0 hr 2 min 28 sec) 
Heartbeat CPU  0 instructions:  103000000 cycles:   47556112 heartbeat IPC: 0.63146 cumulative IPC: 0.70067 (Simulation time: 0 hr 2 min 31 sec) 
Heartbeat CPU  0 instructions:  104000000 cycles:   49097073 heartbeat IPC: 0.64895 cumulative IPC: 0.68698 (Simulation time: 0 hr 2 min 33 sec) 
Heartbeat CPU  0 instructions:  105000000 cycles:   50379104 heartbeat IPC: 0.78001 cumulative IPC: 0.70377 (Simulation time: 0 hr 2 min 35 sec) 
Heartbeat CPU  0 instructions:  106000002 cycles:   51734769 heartbeat IPC: 0.73765 cumulative IPC: 0.70920 (Simulation time: 0 hr 2 min 37 sec) 
Heartbeat CPU  0 instructions:  107000003 cycles:   53258459 heartbeat IPC: 0.65630 cumulative IPC: 0.70112 (Simulation time: 0 hr 2 min 39 sec) 
Heartbeat CPU  0 instructions:  108000000 cycles:   54847633 heartbeat IPC: 0.62926 cumulative IPC: 0.69126 (Simulation time: 0 hr 2 min 41 sec) 
Heartbeat CPU  0 instructions:  109000000 cycles:   56317014 heartbeat IPC: 0.68056 cumulative IPC: 0.69005 (Simulation time: 0 hr 2 min 43 sec) 
Heartbeat CPU  0 instructions:  110000002 cycles:   57393034 heartbeat IPC: 0.92935 cumulative IPC: 0.70829 (Simulation time: 0 hr 2 min 45 sec) 
Heartbeat CPU  0 instructions:  111000002 cycles:   58956118 heartbeat IPC: 0.63976 cumulative IPC: 0.70146 (Simulation time: 0 hr 2 min 47 sec) 
Heartbeat CPU  0 instructions:  112000000 cycles:   60535311 heartbeat IPC: 0.63323 cumulative IPC: 0.69522 (Simulation time: 0 hr 2 min 49 sec) 
Heartbeat CPU  0 instructions:  113000002 cycles:   62039457 heartbeat IPC: 0.66483 cumulative IPC: 0.69278 (Simulation time: 0 hr 2 min 52 sec) 
Heartbeat CPU  0 instructions:  114000001 cycles:   63279661 heartbeat IPC: 0.80632 cumulative IPC: 0.69982 (Simulation time: 0 hr 2 min 53 sec) 
Heartbeat CPU  0 instructions:  115000000 cycles:   64831371 heartbeat IPC: 0.64445 cumulative IPC: 0.69583 (Simulation time: 0 hr 2 min 56 sec) 
Heartbeat CPU  0 instructions:  116000000 cycles:   66356444 heartbeat IPC: 0.65571 cumulative IPC: 0.69318 (Simulation time: 0 hr 2 min 58 sec) 
Heartbeat CPU  0 instructions:  117000000 cycles:   68099582 heartbeat IPC: 0.57368 cumulative IPC: 0.68479 (Simulation time: 0 hr 3 min 0 sec) 
Heartbeat CPU  0 instructions:  118000003 cycles:   69754613 heartbeat IPC: 0.60422 cumulative IPC: 0.67976 (Simulation time: 0 hr 3 min 2 sec) 
Heartbeat CPU  0 instructions:  119000002 cycles:   71450678 heartbeat IPC: 0.58960 cumulative IPC: 0.67433 (Simulation time: 0 hr 3 min 4 sec) 
Heartbeat CPU  0 instructions:  120000000 cycles:   73190393 heartbeat IPC: 0.57481 cumulative IPC: 0.66854 (Simulation time: 0 hr 3 min 6 sec) 
Heartbeat CPU  0 instructions:  121000000 cycles:   74310815 heartbeat IPC: 0.89252 cumulative IPC: 0.67663 (Simulation time: 0 hr 3 min 8 sec) 
Heartbeat CPU  0 instructions:  122000001 cycles:   75883744 heartbeat IPC: 0.63576 cumulative IPC: 0.67466 (Simulation time: 0 hr 3 min 11 sec) 
Heartbeat CPU  0 instructions:  123000001 cycles:   77501996 heartbeat IPC: 0.61795 cumulative IPC: 0.67197 (Simulation time: 0 hr 3 min 13 sec) 
Heartbeat CPU  0 instructions:  124000000 cycles:   79208410 heartbeat IPC: 0.58602 cumulative IPC: 0.66789 (Simulation time: 0 hr 3 min 15 sec) 
Heartbeat CPU  0 instructions:  125000001 cycles:   80881867 heartbeat IPC: 0.59757 cumulative IPC: 0.66476 (Simulation time: 0 hr 3 min 17 sec) 
Heartbeat CPU  0 instructions:  126000003 cycles:   82585276 heartbeat IPC: 0.58706 cumulative IPC: 0.66140 (Simulation time: 0 hr 3 min 19 sec) 
Heartbeat CPU  0 instructions:  127000000 cycles:   83711622 heartbeat IPC: 0.88782 cumulative IPC: 0.66770 (Simulation time: 0 hr 3 min 21 sec) 
Heartbeat CPU  0 instructions:  128000000 cycles:   85265212 heartbeat IPC: 0.64367 cumulative IPC: 0.66681 (Simulation time: 0 hr 3 min 23 sec) 
Heartbeat CPU  0 instructions:  129000000 cycles:   86788770 heartbeat IPC: 0.65636 cumulative IPC: 0.66645 (Simulation time: 0 hr 3 min 25 sec) 
Heartbeat CPU  0 instructions:  130000002 cycles:   88496524 heartbeat IPC: 0.58557 cumulative IPC: 0.66339 (Simulation time: 0 hr 3 min 28 sec) 
Heartbeat CPU  0 instructions:  131000002 cycles:   90115415 heartbeat IPC: 0.61771 cumulative IPC: 0.66181 (Simulation time: 0 hr 3 min 30 sec) 
Heartbeat CPU  0 instructions:  132000000 cycles:   91667606 heartbeat IPC: 0.64425 cumulative IPC: 0.66125 (Simulation time: 0 hr 3 min 32 sec) 
Heartbeat CPU  0 instructions:  133000002 cycles:   92868553 heartbeat IPC: 0.83268 cumulative IPC: 0.66540 (Simulation time: 0 hr 3 min 34 sec) 
Heartbeat CPU  0 instructions:  134000000 cycles:   94427008 heartbeat IPC: 0.64166 cumulative IPC: 0.66468 (Simulation time: 0 hr 3 min 36 sec) 
Heartbeat CPU  0 instructions:  135000001 cycles:   96019427 heartbeat IPC: 0.62798 cumulative IPC: 0.66357 (Simulation time: 0 hr 3 min 38 sec) 
Heartbeat CPU  0 instructions:  136000000 cycles:   97609117 heartbeat IPC: 0.62905 cumulative IPC: 0.66256 (Simulation time: 0 hr 3 min 40 sec) 
Heartbeat CPU  0 instructions:  137000002 cycles:   99021956 heartbeat IPC: 0.70780 cumulative IPC: 0.66371 (Simulation time: 0 hr 3 min 42 sec) 
Heartbeat CPU  0 instructions:  138000002 cycles:  100282115 heartbeat IPC: 0.79355 cumulative IPC: 0.66658 (Simulation time: 0 hr 3 min 44 sec) 
Heartbeat CPU  0 instructions:  139000001 cycles:  101802782 heartbeat IPC: 0.65761 cumulative IPC: 0.66634 (Simulation time: 0 hr 3 min 47 sec) 
Heartbeat CPU  0 instructions:  140000000 cycles:  103421645 heartbeat IPC: 0.61772 cumulative IPC: 0.66504 (Simulation time: 0 hr 3 min 49 sec) 
Heartbeat CPU  0 instructions:  141000000 cycles:  104955178 heartbeat IPC: 0.65209 cumulative IPC: 0.66471 (Simulation time: 0 hr 3 min 51 sec) 
Heartbeat CPU  0 instructions:  142000001 cycles:  106246878 heartbeat IPC: 0.77417 cumulative IPC: 0.66696 (Simulation time: 0 hr 3 min 53 sec) 
Heartbeat CPU  0 instructions:  143000003 cycles:  107631759 heartbeat IPC: 0.72209 cumulative IPC: 0.66815 (Simulation time: 0 hr 3 min 55 sec) 
Heartbeat CPU  0 instructions:  144000000 cycles:  109151985 heartbeat IPC: 0.65779 cumulative IPC: 0.66791 (Simulation time: 0 hr 3 min 57 sec) 
Heartbeat CPU  0 instructions:  145000002 cycles:  110763593 heartbeat IPC: 0.62050 cumulative IPC: 0.66677 (Simulation time: 0 hr 3 min 59 sec) 
Heartbeat CPU  0 instructions:  146000002 cycles:  112319255 heartbeat IPC: 0.64281 cumulative IPC: 0.66623 (Simulation time: 0 hr 4 min 1 sec) 
Heartbeat CPU  0 instructions:  147000002 cycles:  113365569 heartbeat IPC: 0.95574 cumulative IPC: 0.67056 (Simulation time: 0 hr 4 min 3 sec) 
Heartbeat CPU  0 instructions:  148000000 cycles:  114926381 heartbeat IPC: 0.64069 cumulative IPC: 0.66991 (Simulation time: 0 hr 4 min 5 sec) 
Heartbeat CPU  0 instructions:  149000000 cycles:  116484542 heartbeat IPC: 0.64178 cumulative IPC: 0.66931 (Simulation time: 0 hr 4 min 8 sec) 
Heartbeat CPU  0 instructions:  150000003 cycles:  118047787 heartbeat IPC: 0.63970 cumulative IPC: 0.66869 (Simulation time: 0 hr 4 min 10 sec) 
Heartbeat CPU  0 instructions:  151000002 cycles:  119472795 heartbeat IPC: 0.70175 cumulative IPC: 0.66931 (Simulation time: 0 hr 4 min 12 sec) 
Heartbeat CPU  0 instructions:  152000000 cycles:  120403820 heartbeat IPC: 1.07408 cumulative IPC: 0.67419 (Simulation time: 0 hr 4 min 14 sec) 
Heartbeat CPU  0 instructions:  153000001 cycles:  121577229 heartbeat IPC: 0.85222 cumulative IPC: 0.67686 (Simulation time: 0 hr 4 min 16 sec) 
Heartbeat CPU  0 instructions:  154000003 cycles:  123132270 heartbeat IPC: 0.64307 cumulative IPC: 0.67620 (Simulation time: 0 hr 4 min 18 sec) 
Heartbeat CPU  0 instructions:  155000003 cycles:  124713411 heartbeat IPC: 0.63245 cumulative IPC: 0.67535 (Simulation time: 0 hr 4 min 20 sec) 
Heartbeat CPU  0 instructions:  156000000 cycles:  126231955 heartbeat IPC: 0.65852 cumulative IPC: 0.67504 (Simulation time: 0 hr 4 min 22 sec) 
Heartbeat CPU  0 instructions:  157000003 cycles:  127403912 heartbeat IPC: 0.85328 cumulative IPC: 0.67753 (Simulation time: 0 hr 4 min 24 sec) 
Heartbeat CPU  0 instructions:  158000003 cycles:  128870152 heartbeat IPC: 0.68202 cumulative IPC: 0.67760 (Simulation time: 0 hr 4 min 26 sec) 
Heartbeat CPU  0 instructions:  159000001 cycles:  130379796 heartbeat IPC: 0.66241 cumulative IPC: 0.67734 (Simulation time: 0 hr 4 min 28 sec) 
Heartbeat CPU  0 instructions:  160000000 cycles:  131980197 heartbeat IPC: 0.62484 cumulative IPC: 0.67639 (Simulation time: 0 hr 4 min 30 sec) 
Heartbeat CPU  0 instructions:  161000000 cycles:  133396828 heartbeat IPC: 0.70590 cumulative IPC: 0.67686 (Simulation time: 0 hr 4 min 32 sec) 
Heartbeat CPU  0 instructions:  162000003 cycles:  134533130 heartbeat IPC: 0.88005 cumulative IPC: 0.67939 (Simulation time: 0 hr 4 min 34 sec) 
Heartbeat CPU  0 instructions:  163000003 cycles:  136095667 heartbeat IPC: 0.63998 cumulative IPC: 0.67872 (Simulation time: 0 hr 4 min 37 sec) 
Heartbeat CPU  0 instructions:  164000000 cycles:  137667454 heartbeat IPC: 0.63622 cumulative IPC: 0.67802 (Simulation time: 0 hr 4 min 39 sec) 
Heartbeat CPU  0 instructions:  165000000 cycles:  139177277 heartbeat IPC: 0.66233 cumulative IPC: 0.67777 (Simulation time: 0 hr 4 min 41 sec) 
Heartbeat CPU  0 instructions:  166000002 cycles:  140357018 heartbeat IPC: 0.84765 cumulative IPC: 0.67983 (Simulation time: 0 hr 4 min 43 sec) 
Heartbeat CPU  0 instructions:  167000001 cycles:  141804467 heartbeat IPC: 0.69087 cumulative IPC: 0.68000 (Simulation time: 0 hr 4 min 45 sec) 
Heartbeat CPU  0 instructions:  168000000 cycles:  143317590 heartbeat IPC: 0.66088 cumulative IPC: 0.67971 (Simulation time: 0 hr 4 min 47 sec) 
Heartbeat CPU  0 instructions:  169000000 cycles:  144917833 heartbeat IPC: 0.62491 cumulative IPC: 0.67884 (Simulation time: 0 hr 4 min 49 sec) 
Heartbeat CPU  0 instructions:  170000002 cycles:  146347494 heartbeat IPC: 0.69947 cumulative IPC: 0.67913 (Simulation time: 0 hr 4 min 51 sec) 
Heartbeat CPU  0 instructions:  171000003 cycles:  147472401 heartbeat IPC: 0.88896 cumulative IPC: 0.68140 (Simulation time: 0 hr 4 min 53 sec) 
Heartbeat CPU  0 instructions:  172000000 cycles:  149040613 heartbeat IPC: 0.63767 cumulative IPC: 0.68075 (Simulation time: 0 hr 4 min 56 sec) 
Heartbeat CPU  0 instructions:  173000000 cycles:  150613291 heartbeat IPC: 0.63586 cumulative IPC: 0.68009 (Simulation time: 0 hr 4 min 58 sec) 
Heartbeat CPU  0 instructions:  174000000 cycles:  152131242 heartbeat IPC: 0.65878 cumulative IPC: 0.67979 (Simulation time: 0 hr 5 min 0 sec) 
Heartbeat CPU  0 instructions:  175000002 cycles:  153323563 heartbeat IPC: 0.83870 cumulative IPC: 0.68151 (Simulation time: 0 hr 5 min 2 sec) 
Heartbeat CPU  0 instructions:  176000000 cycles:  154754592 heartbeat IPC: 0.69880 cumulative IPC: 0.68174 (Simulation time: 0 hr 5 min 4 sec) 
Heartbeat CPU  0 instructions:  177000003 cycles:  156263252 heartbeat IPC: 0.66284 cumulative IPC: 0.68148 (Simulation time: 0 hr 5 min 6 sec) 
Heartbeat CPU  0 instructions:  178000003 cycles:  157864375 heartbeat IPC: 0.62456 cumulative IPC: 0.68069 (Simulation time: 0 hr 5 min 8 sec) 
Heartbeat CPU  0 instructions:  179000002 cycles:  159300734 heartbeat IPC: 0.69620 cumulative IPC: 0.68088 (Simulation time: 0 hr 5 min 10 sec) 
Heartbeat CPU  0 instructions:  180000000 cycles:  160407078 heartbeat IPC: 0.90388 cumulative IPC: 0.68299 (Simulation time: 0 hr 5 min 12 sec) 
Heartbeat CPU  0 instructions:  181000002 cycles:  161983320 heartbeat IPC: 0.63442 cumulative IPC: 0.68234 (Simulation time: 0 hr 5 min 14 sec) 
Heartbeat CPU  0 instructions:  182000003 cycles:  163558712 heartbeat IPC: 0.63476 cumulative IPC: 0.68172 (Simulation time: 0 hr 5 min 17 sec) 
Heartbeat CPU  0 instructions:  183000002 cycles:  165054291 heartbeat IPC: 0.66864 cumulative IPC: 0.68156 (Simulation time: 0 hr 5 min 19 sec) 
Heartbeat CPU  0 instructions:  184000000 cycles:  166269289 heartbeat IPC: 0.82304 cumulative IPC: 0.68296 (Simulation time: 0 hr 5 min 20 sec) 
Heartbeat CPU  0 instructions:  185000003 cycles:  167677927 heartbeat IPC: 0.70991 cumulative IPC: 0.68326 (Simulation time: 0 hr 5 min 23 sec) 
Heartbeat CPU  0 instructions:  186000001 cycles:  169190311 heartbeat IPC: 0.66121 cumulative IPC: 0.68300 (Simulation time: 0 hr 5 min 25 sec) 
Heartbeat CPU  0 instructions:  187000003 cycles:  170794576 heartbeat IPC: 0.62334 cumulative IPC: 0.68225 (Simulation time: 0 hr 5 min 27 sec) 
Heartbeat CPU  0 instructions:  188000000 cycles:  172230993 heartbeat IPC: 0.69617 cumulative IPC: 0.68240 (Simulation time: 0 hr 5 min 29 sec) 
Heartbeat CPU  0 instructions:  189000001 cycles:  173350423 heartbeat IPC: 0.89331 cumulative IPC: 0.68422 (Simulation time: 0 hr 5 min 31 sec) 
Heartbeat CPU  0 instructions:  190000001 cycles:  174923970 heartbeat IPC: 0.63551 cumulative IPC: 0.68363 (Simulation time: 0 hr 5 min 33 sec) 
Heartbeat CPU  0 instructions:  191000003 cycles:  176495087 heartbeat IPC: 0.63649 cumulative IPC: 0.68308 (Simulation time: 0 hr 5 min 35 sec) 
Heartbeat CPU  0 instructions:  192000000 cycles:  177999809 heartbeat IPC: 0.66457 cumulative IPC: 0.68287 (Simulation time: 0 hr 5 min 37 sec) 
Heartbeat CPU  0 instructions:  193000002 cycles:  179220099 heartbeat IPC: 0.81948 cumulative IPC: 0.68410 (Simulation time: 0 hr 5 min 39 sec) 
Heartbeat CPU  0 instructions:  194000002 cycles:  180629382 heartbeat IPC: 0.70958 cumulative IPC: 0.68436 (Simulation time: 0 hr 5 min 41 sec) 
Heartbeat CPU  0 instructions:  195000003 cycles:  182140978 heartbeat IPC: 0.66155 cumulative IPC: 0.68411 (Simulation time: 0 hr 5 min 44 sec) 
Heartbeat CPU  0 instructions:  196000000 cycles:  183744035 heartbeat IPC: 0.62381 cumulative IPC: 0.68342 (Simulation time: 0 hr 5 min 46 sec) 
Heartbeat CPU  0 instructions:  197000002 cycles:  185204160 heartbeat IPC: 0.68487 cumulative IPC: 0.68344 (Simulation time: 0 hr 5 min 48 sec) 
Heartbeat CPU  0 instructions:  198000001 cycles:  186291951 heartbeat IPC: 0.91929 cumulative IPC: 0.68523 (Simulation time: 0 hr 5 min 50 sec) 
Heartbeat CPU  0 instructions:  199000001 cycles:  187872721 heartbeat IPC: 0.63260 cumulative IPC: 0.68466 (Simulation time: 0 hr 5 min 52 sec) 
Heartbeat CPU  0 instructions:  200000000 cycles:  189443291 heartbeat IPC: 0.63671 cumulative IPC: 0.68414 (Simulation time: 0 hr 5 min 54 sec) 
Heartbeat CPU  0 instructions:  201000003 cycles:  190935534 heartbeat IPC: 0.67013 cumulative IPC: 0.68400 (Simulation time: 0 hr 5 min 56 sec) 
Heartbeat CPU  0 instructions:  202000001 cycles:  192181531 heartbeat IPC: 0.80257 cumulative IPC: 0.68499 (Simulation time: 0 hr 5 min 58 sec) 
Heartbeat CPU  0 instructions:  203000001 cycles:  193556950 heartbeat IPC: 0.72705 cumulative IPC: 0.68538 (Simulation time: 0 hr 6 min 0 sec) 
Heartbeat CPU  0 instructions:  204000000 cycles:  195072848 heartbeat IPC: 0.65967 cumulative IPC: 0.68512 (Simulation time: 0 hr 6 min 3 sec) 
Heartbeat CPU  0 instructions:  205000002 cycles:  196665472 heartbeat IPC: 0.62790 cumulative IPC: 0.68453 (Simulation time: 0 hr 6 min 5 sec) 
Heartbeat CPU  0 instructions:  206000001 cycles:  198128848 heartbeat IPC: 0.68335 cumulative IPC: 0.68451 (Simulation time: 0 hr 6 min 7 sec) 
Heartbeat CPU  0 instructions:  207000001 cycles:  199209393 heartbeat IPC: 0.92546 cumulative IPC: 0.68618 (Simulation time: 0 hr 6 min 9 sec) 
Heartbeat CPU  0 instructions:  208000000 cycles:  200792230 heartbeat IPC: 0.63178 cumulative IPC: 0.68564 (Simulation time: 0 hr 6 min 11 sec) 
Heartbeat CPU  0 instructions:  209000001 cycles:  202353767 heartbeat IPC: 0.64040 cumulative IPC: 0.68519 (Simulation time: 0 hr 6 min 13 sec) 
Heartbeat CPU  0 instructions:  210000000 cycles:  203848035 heartbeat IPC: 0.66922 cumulative IPC: 0.68504 (Simulation time: 0 hr 6 min 15 sec) 
Heartbeat CPU  0 instructions:  211000003 cycles:  205094195 heartbeat IPC: 0.80247 cumulative IPC: 0.68595 (Simulation time: 0 hr 6 min 17 sec) 
Heartbeat CPU  0 instructions:  212000000 cycles:  206036939 heartbeat IPC: 1.06073 cumulative IPC: 0.68812 (Simulation time: 0 hr 6 min 19 sec) 
Heartbeat CPU  0 instructions:  213000001 cycles:  207434298 heartbeat IPC: 0.71564 cumulative IPC: 0.68835 (Simulation time: 0 hr 6 min 21 sec) 
Heartbeat CPU  0 instructions:  214000001 cycles:  208956962 heartbeat IPC: 0.65674 cumulative IPC: 0.68806 (Simulation time: 0 hr 6 min 23 sec) 
Heartbeat CPU  0 instructions:  215000002 cycles:  210552016 heartbeat IPC: 0.62694 cumulative IPC: 0.68748 (Simulation time: 0 hr 6 min 25 sec) 
Heartbeat CPU  0 instructions:  216000000 cycles:  212007094 heartbeat IPC: 0.68725 cumulative IPC: 0.68748 (Simulation time: 0 hr 6 min 27 sec) 
Heartbeat CPU  0 instructions:  217000001 cycles:  213096396 heartbeat IPC: 0.91802 cumulative IPC: 0.68896 (Simulation time: 0 hr 6 min 29 sec) 
Heartbeat CPU  0 instructions:  218000000 cycles:  214677109 heartbeat IPC: 0.63263 cumulative IPC: 0.68844 (Simulation time: 0 hr 6 min 32 sec) 
Heartbeat CPU  0 instructions:  219000000 cycles:  216245971 heartbeat IPC: 0.63740 cumulative IPC: 0.68797 (Simulation time: 0 hr 6 min 34 sec) 
Heartbeat CPU  0 instructions:  220000000 cycles:  217733774 heartbeat IPC: 0.67213 cumulative IPC: 0.68784 (Simulation time: 0 hr 6 min 36 sec) 
Heartbeat CPU  0 instructions:  221000001 cycles:  218967080 heartbeat IPC: 0.81083 cumulative IPC: 0.68870 (Simulation time: 0 hr 6 min 38 sec) 
Heartbeat CPU  0 instructions:  222000002 cycles:  220360806 heartbeat IPC: 0.71750 cumulative IPC: 0.68893 (Simulation time: 0 hr 6 min 40 sec) 
Heartbeat CPU  0 instructions:  223000001 cycles:  221877203 heartbeat IPC: 0.65946 cumulative IPC: 0.68868 (Simulation time: 0 hr 6 min 42 sec) 
Heartbeat CPU  0 instructions:  224000000 cycles:  223481115 heartbeat IPC: 0.62347 cumulative IPC: 0.68810 (Simulation time: 0 hr 6 min 44 sec) 
Heartbeat CPU  0 instructions:  225000001 cycles:  224922789 heartbeat IPC: 0.69364 cumulative IPC: 0.68814 (Simulation time: 0 hr 6 min 46 sec) 
Heartbeat CPU  0 instructions:  226000003 cycles:  226019705 heartbeat IPC: 0.91165 cumulative IPC: 0.68948 (Simulation time: 0 hr 6 min 48 sec) 
Heartbeat CPU  0 instructions:  227000003 cycles:  227599073 heartbeat IPC: 0.63316 cumulative IPC: 0.68900 (Simulation time: 0 hr 6 min 51 sec) 
Heartbeat CPU  0 instructions:  228000000 cycles:  229170640 heartbeat IPC: 0.63631 cumulative IPC: 0.68856 (Simulation time: 0 hr 6 min 53 sec) 
Heartbeat CPU  0 instructions:  229000003 cycles:  230665599 heartbeat IPC: 0.66892 cumulative IPC: 0.68840 (Simulation time: 0 hr 6 min 55 sec) 
Heartbeat CPU  0 instructions:  230000001 cycles:  231883519 heartbeat IPC: 0.82107 cumulative IPC: 0.68926 (Simulation time: 0 hr 6 min 57 sec) 
Heartbeat CPU  0 instructions:  231000002 cycles:  233282730 heartbeat IPC: 0.71469 cumulative IPC: 0.68944 (Simulation time: 0 hr 6 min 59 sec) 
Heartbeat CPU  0 instructions:  232000000 cycles:  234796769 heartbeat IPC: 0.66048 cumulative IPC: 0.68921 (Simulation time: 0 hr 7 min 1 sec) 
Heartbeat CPU  0 instructions:  233000002 cycles:  236389438 heartbeat IPC: 0.62788 cumulative IPC: 0.68871 (Simulation time: 0 hr 7 min 3 sec) 
Heartbeat CPU  0 instructions:  234000002 cycles:  237841127 heartbeat IPC: 0.68885 cumulative IPC: 0.68871 (Simulation time: 0 hr 7 min 5 sec) 
Heartbeat CPU  0 instructions:  235000000 cycles:  238922675 heartbeat IPC: 0.92460 cumulative IPC: 0.69001 (Simulation time: 0 hr 7 min 7 sec) 
Heartbeat CPU  0 instructions:  236000000 cycles:  240502615 heartbeat IPC: 0.63294 cumulative IPC: 0.68956 (Simulation time: 0 hr 7 min 10 sec) 
Heartbeat CPU  0 instructions:  237000003 cycles:  242074855 heartbeat IPC: 0.63604 cumulative IPC: 0.68913 (Simulation time: 0 hr 7 min 12 sec) 
Heartbeat CPU  0 instructions:  238000000 cycles:  243564667 heartbeat IPC: 0.67122 cumulative IPC: 0.68900 (Simulation time: 0 hr 7 min 14 sec) 
Heartbeat CPU  0 instructions:  239000000 cycles:  244786662 heartbeat IPC: 0.81833 cumulative IPC: 0.68978 (Simulation time: 0 hr 7 min 16 sec) 
Heartbeat CPU  0 instructions:  240000000 cycles:  246172378 heartbeat IPC: 0.72165 cumulative IPC: 0.69000 (Simulation time: 0 hr 7 min 18 sec) 
Heartbeat CPU  0 instructions:  241000000 cycles:  247690204 heartbeat IPC: 0.65884 cumulative IPC: 0.68977 (Simulation time: 0 hr 7 min 20 sec) 
Heartbeat CPU  0 instructions:  242000002 cycles:  249282771 heartbeat IPC: 0.62792 cumulative IPC: 0.68929 (Simulation time: 0 hr 7 min 22 sec) 
Heartbeat CPU  0 instructions:  243000003 cycles:  250728437 heartbeat IPC: 0.69172 cumulative IPC: 0.68931 (Simulation time: 0 hr 7 min 24 sec) 
Heartbeat CPU  0 instructions:  244000000 cycles:  251814922 heartbeat IPC: 0.92040 cumulative IPC: 0.69051 (Simulation time: 0 hr 7 min 26 sec) 
Heartbeat CPU  0 instructions:  245000001 cycles:  253397489 heartbeat IPC: 0.63189 cumulative IPC: 0.69007 (Simulation time: 0 hr 7 min 28 sec) 
Heartbeat CPU  0 instructions:  246000000 cycles:  254966722 heartbeat IPC: 0.63725 cumulative IPC: 0.68968 (Simulation time: 0 hr 7 min 31 sec) 
Heartbeat CPU  0 instructions:  247000001 cycles:  256451779 heartbeat IPC: 0.67338 cumulative IPC: 0.68957 (Simulation time: 0 hr 7 min 33 sec) 
Heartbeat CPU  0 instructions:  248000000 cycles:  257686780 heartbeat IPC: 0.80972 cumulative IPC: 0.69026 (Simulation time: 0 hr 7 min 35 sec) 
Heartbeat CPU  0 instructions:  249000000 cycles:  259074825 heartbeat IPC: 0.72044 cumulative IPC: 0.69045 (Simulation time: 0 hr 7 min 37 sec) 
Heartbeat CPU  0 instructions:  250000003 cycles:  260593106 heartbeat IPC: 0.65864 cumulative IPC: 0.69023 (Simulation time: 0 hr 7 min 39 sec) 
Heartbeat CPU  0 instructions:  251000002 cycles:  262193024 heartbeat IPC: 0.62503 cumulative IPC: 0.68975 (Simulation time: 0 hr 7 min 41 sec) 
Heartbeat CPU  0 instructions:  252000000 cycles:  263636847 heartbeat IPC: 0.69260 cumulative IPC: 0.68977 (Simulation time: 0 hr 7 min 43 sec) 
Heartbeat CPU  0 instructions:  253000002 cycles:  264748334 heartbeat IPC: 0.89970 cumulative IPC: 0.69083 (Simulation time: 0 hr 7 min 45 sec) 
Heartbeat CPU  0 instructions:  254000003 cycles:  266327069 heartbeat IPC: 0.63342 cumulative IPC: 0.69042 (Simulation time: 0 hr 7 min 47 sec) 
Heartbeat CPU  0 instructions:  255000002 cycles:  267894705 heartbeat IPC: 0.63790 cumulative IPC: 0.69005 (Simulation time: 0 hr 7 min 49 sec) 
Heartbeat CPU  0 instructions:  256000000 cycles:  269393616 heartbeat IPC: 0.66715 cumulative IPC: 0.68990 (Simulation time: 0 hr 7 min 51 sec) 
Heartbeat CPU  0 instructions:  257000001 cycles:  270600045 heartbeat IPC: 0.82889 cumulative IPC: 0.69064 (Simulation time: 0 hr 7 min 53 sec) 
Heartbeat CPU  0 instructions:  258000002 cycles:  272015550 heartbeat IPC: 0.70646 cumulative IPC: 0.69074 (Simulation time: 0 hr 7 min 55 sec) 
Heartbeat CPU  0 instructions:  259000000 cycles:  273524267 heartbeat IPC: 0.66281 cumulative IPC: 0.69055 (Simulation time: 0 hr 7 min 58 sec) 
Heartbeat CPU  0 instructions:  260000000 cycles:  275135023 heartbeat IPC: 0.62083 cumulative IPC: 0.69007 (Simulation time: 0 hr 8 min 0 sec) 
Heartbeat CPU  0 instructions:  261000003 cycles:  276549432 heartbeat IPC: 0.70701 cumulative IPC: 0.69017 (Simulation time: 0 hr 8 min 2 sec) 
Heartbeat CPU  0 instructions:  262000001 cycles:  277676821 heartbeat IPC: 0.88700 cumulative IPC: 0.69112 (Simulation time: 0 hr 8 min 4 sec) 
Heartbeat CPU  0 instructions:  263000003 cycles:  279246585 heartbeat IPC: 0.63704 cumulative IPC: 0.69076 (Simulation time: 0 hr 8 min 6 sec) 
Heartbeat CPU  0 instructions:  264000000 cycles:  280823867 heartbeat IPC: 0.63400 cumulative IPC: 0.69038 (Simulation time: 0 hr 8 min 8 sec) 
Heartbeat CPU  0 instructions:  265000000 cycles:  282364740 heartbeat IPC: 0.64898 cumulative IPC: 0.69012 (Simulation time: 0 hr 8 min 10 sec) 
Heartbeat CPU  0 instructions:  266000000 cycles:  283474077 heartbeat IPC: 0.90144 cumulative IPC: 0.69109 (Simulation time: 0 hr 8 min 12 sec) 
Heartbeat CPU  0 instructions:  267000002 cycles:  284396356 heartbeat IPC: 1.08427 cumulative IPC: 0.69260 (Simulation time: 0 hr 8 min 14 sec) 
Heartbeat CPU  0 instructions:  268000000 cycles:  285883411 heartbeat IPC: 0.67247 cumulative IPC: 0.69247 (Simulation time: 0 hr 8 min 16 sec) 
Heartbeat CPU  0 instructions:  269000002 cycles:  287391862 heartbeat IPC: 0.66293 cumulative IPC: 0.69229 (Simulation time: 0 hr 8 min 18 sec) 
Heartbeat CPU  0 instructions:  270000003 cycles:  289159065 heartbeat IPC: 0.56587 cumulative IPC: 0.69138 (Simulation time: 0 hr 8 min 21 sec) 
Heartbeat CPU  0 instructions:  271000001 cycles:  290203354 heartbeat IPC: 0.95759 cumulative IPC: 0.69251 (Simulation time: 0 hr 8 min 22 sec) 
Heartbeat CPU  0 instructions:  272000000 cycles:  291761441 heartbeat IPC: 0.64181 cumulative IPC: 0.69219 (Simulation time: 0 hr 8 min 25 sec) 
Heartbeat CPU  0 instructions:  273000001 cycles:  293306597 heartbeat IPC: 0.64718 cumulative IPC: 0.69191 (Simulation time: 0 hr 8 min 27 sec) 
Heartbeat CPU  0 instructions:  274000000 cycles:  295003318 heartbeat IPC: 0.58937 cumulative IPC: 0.69122 (Simulation time: 0 hr 8 min 29 sec) 
Heartbeat CPU  0 instructions:  275000003 cycles:  296071768 heartbeat IPC: 0.93594 cumulative IPC: 0.69225 (Simulation time: 0 hr 8 min 31 sec) 
Heartbeat CPU  0 instructions:  276000000 cycles:  297649139 heartbeat IPC: 0.63396 cumulative IPC: 0.69189 (Simulation time: 0 hr 8 min 33 sec) 
Heartbeat CPU  0 instructions:  277000001 cycles:  299261714 heartbeat IPC: 0.62013 cumulative IPC: 0.69144 (Simulation time: 0 hr 8 min 35 sec) 
Heartbeat CPU  0 instructions:  278000002 cycles:  300826542 heartbeat IPC: 0.63905 cumulative IPC: 0.69112 (Simulation time: 0 hr 8 min 37 sec) 
Heartbeat CPU  0 instructions:  279000003 cycles:  301917447 heartbeat IPC: 0.91667 cumulative IPC: 0.69207 (Simulation time: 0 hr 8 min 39 sec) 
Heartbeat CPU  0 instructions:  280000000 cycles:  303494491 heartbeat IPC: 0.63410 cumulative IPC: 0.69172 (Simulation time: 0 hr 8 min 42 sec) 
Heartbeat CPU  0 instructions:  281000003 cycles:  305123156 heartbeat IPC: 0.61400 cumulative IPC: 0.69124 (Simulation time: 0 hr 8 min 44 sec) 
Heartbeat CPU  0 instructions:  282000001 cycles:  306629745 heartbeat IPC: 0.66375 cumulative IPC: 0.69108 (Simulation time: 0 hr 8 min 46 sec) 
Heartbeat CPU  0 instructions:  283000000 cycles:  307783965 heartbeat IPC: 0.86639 cumulative IPC: 0.69185 (Simulation time: 0 hr 8 min 48 sec) 
Heartbeat CPU  0 instructions:  284000000 cycles:  309342868 heartbeat IPC: 0.64148 cumulative IPC: 0.69155 (Simulation time: 0 hr 8 min 50 sec) 
Heartbeat CPU  0 instructions:  285000002 cycles:  311091809 heartbeat IPC: 0.57178 cumulative IPC: 0.69077 (Simulation time: 0 hr 8 min 52 sec) 
Heartbeat CPU  0 instructions:  286000003 cycles:  312893865 heartbeat IPC: 0.55492 cumulative IPC: 0.68986 (Simulation time: 0 hr 8 min 54 sec) 
Heartbeat CPU  0 instructions:  287000003 cycles:  314013516 heartbeat IPC: 0.89314 cumulative IPC: 0.69070 (Simulation time: 0 hr 8 min 56 sec) 
Heartbeat CPU  0 instructions:  288000000 cycles:  315583900 heartbeat IPC: 0.63679 cumulative IPC: 0.69039 (Simulation time: 0 hr 8 min 58 sec) 
Heartbeat CPU  0 instructions:  289000001 cycles:  317218711 heartbeat IPC: 0.61169 cumulative IPC: 0.68992 (Simulation time: 0 hr 9 min 1 sec) 
Heartbeat CPU  0 instructions:  290000001 cycles:  319050313 heartbeat IPC: 0.54597 cumulative IPC: 0.68897 (Simulation time: 0 hr 9 min 3 sec) 
Heartbeat CPU  0 instructions:  291000000 cycles:  320888721 heartbeat IPC: 0.54395 cumulative IPC: 0.68801 (Simulation time: 0 hr 9 min 5 sec) 
Heartbeat CPU  0 instructions:  292000000 cycles:  322262071 heartbeat IPC: 0.72815 cumulative IPC: 0.68820 (Simulation time: 0 hr 9 min 7 sec) 
Heartbeat CPU  0 instructions:  293000001 cycles:  323695279 heartbeat IPC: 0.69774 cumulative IPC: 0.68825 (Simulation time: 0 hr 9 min 9 sec) 
Heartbeat CPU  0 instructions:  294000002 cycles:  325208030 heartbeat IPC: 0.66105 cumulative IPC: 0.68811 (Simulation time: 0 hr 9 min 11 sec) 
Heartbeat CPU  0 instructions:  295000003 cycles:  326976006 heartbeat IPC: 0.56562 cumulative IPC: 0.68734 (Simulation time: 0 hr 9 min 13 sec) 
Heartbeat CPU  0 instructions:  296000000 cycles:  328669213 heartbeat IPC: 0.59059 cumulative IPC: 0.68677 (Simulation time: 0 hr 9 min 15 sec) 
Heartbeat CPU  0 instructions:  297000002 cycles:  330330860 heartbeat IPC: 0.60181 cumulative IPC: 0.68628 (Simulation time: 0 hr 9 min 18 sec) 
Heartbeat CPU  0 instructions:  298000003 cycles:  331880600 heartbeat IPC: 0.64527 cumulative IPC: 0.68606 (Simulation time: 0 hr 9 min 20 sec) 
Heartbeat CPU  0 instructions:  299000000 cycles:  333256278 heartbeat IPC: 0.72691 cumulative IPC: 0.68625 (Simulation time: 0 hr 9 min 22 sec) 
Heartbeat CPU  0 instructions:  300000000 cycles:  334791049 heartbeat IPC: 0.65156 cumulative IPC: 0.68607 (Simulation time: 0 hr 9 min 24 sec) 
Heartbeat CPU  0 instructions:  301000000 cycles:  336526529 heartbeat IPC: 0.57621 cumulative IPC: 0.68542 (Simulation time: 0 hr 9 min 26 sec) 
Heartbeat CPU  0 instructions:  302000001 cycles:  338218536 heartbeat IPC: 0.59101 cumulative IPC: 0.68488 (Simulation time: 0 hr 9 min 28 sec) 
Heartbeat CPU  0 instructions:  303000003 cycles:  339927500 heartbeat IPC: 0.58515 cumulative IPC: 0.68430 (Simulation time: 0 hr 9 min 30 sec) 
Heartbeat CPU  0 instructions:  304000000 cycles:  341719784 heartbeat IPC: 0.55795 cumulative IPC: 0.68354 (Simulation time: 0 hr 9 min 32 sec) 
Heartbeat CPU  0 instructions:  305000000 cycles:  343401812 heartbeat IPC: 0.59452 cumulative IPC: 0.68304 (Simulation time: 0 hr 9 min 34 sec) 
Heartbeat CPU  0 instructions:  306000002 cycles:  344654789 heartbeat IPC: 0.79810 cumulative IPC: 0.68352 (Simulation time: 0 hr 9 min 36 sec) 
Heartbeat CPU  0 instructions:  307000001 cycles:  346221627 heartbeat IPC: 0.63823 cumulative IPC: 0.68329 (Simulation time: 0 hr 9 min 39 sec) 
Heartbeat CPU  0 instructions:  308000000 cycles:  347897659 heartbeat IPC: 0.59665 cumulative IPC: 0.68281 (Simulation time: 0 hr 9 min 41 sec) 
Heartbeat CPU  0 instructions:  309000002 cycles:  349612746 heartbeat IPC: 0.58306 cumulative IPC: 0.68225 (Simulation time: 0 hr 9 min 43 sec) 
Heartbeat CPU  0 instructions:  310000002 cycles:  351306104 heartbeat IPC: 0.59054 cumulative IPC: 0.68175 (Simulation time: 0 hr 9 min 45 sec) 
Heartbeat CPU  0 instructions:  311000001 cycles:  353100523 heartbeat IPC: 0.55728 cumulative IPC: 0.68103 (Simulation time: 0 hr 9 min 47 sec) 
Heartbeat CPU  0 instructions:  312000000 cycles:  354761986 heartbeat IPC: 0.60188 cumulative IPC: 0.68061 (Simulation time: 0 hr 9 min 49 sec) 
Heartbeat CPU  0 instructions:  313000003 cycles:  355961740 heartbeat IPC: 0.83351 cumulative IPC: 0.68119 (Simulation time: 0 hr 9 min 51 sec) 
Heartbeat CPU  0 instructions:  314000000 cycles:  357525790 heartbeat IPC: 0.63936 cumulative IPC: 0.68098 (Simulation time: 0 hr 9 min 53 sec) 
Heartbeat CPU  0 instructions:  315000003 cycles:  359217519 heartbeat IPC: 0.59111 cumulative IPC: 0.68050 (Simulation time: 0 hr 9 min 56 sec) 
Heartbeat CPU  0 instructions:  316000000 cycles:  360921927 heartbeat IPC: 0.58671 cumulative IPC: 0.68000 (Simulation time: 0 hr 9 min 58 sec) 
Heartbeat CPU  0 instructions:  317000002 cycles:  362775231 heartbeat IPC: 0.53958 cumulative IPC: 0.67918 (Simulation time: 0 hr 10 min 0 sec) 
Heartbeat CPU  0 instructions:  318000001 cycles:  364347266 heartbeat IPC: 0.63612 cumulative IPC: 0.67897 (Simulation time: 0 hr 10 min 2 sec) 
Heartbeat CPU  0 instructions:  319000002 cycles:  365612305 heartbeat IPC: 0.79049 cumulative IPC: 0.67941 (Simulation time: 0 hr 10 min 4 sec) 
Heartbeat CPU  0 instructions:  320000000 cycles:  367169226 heartbeat IPC: 0.64229 cumulative IPC: 0.67923 (Simulation time: 0 hr 10 min 6 sec) 
Heartbeat CPU  0 instructions:  321000000 cycles:  368904599 heartbeat IPC: 0.57625 cumulative IPC: 0.67868 (Simulation time: 0 hr 10 min 8 sec) 
Heartbeat CPU  0 instructions:  322000001 cycles:  370652213 heartbeat IPC: 0.57221 cumulative IPC: 0.67812 (Simulation time: 0 hr 10 min 11 sec) 
Heartbeat CPU  0 instructions:  323000000 cycles:  372513109 heartbeat IPC: 0.53738 cumulative IPC: 0.67732 (Simulation time: 0 hr 10 min 13 sec) 
Heartbeat CPU  0 instructions:  324000000 cycles:  374347700 heartbeat IPC: 0.54508 cumulative IPC: 0.67659 (Simulation time: 0 hr 10 min 15 sec) 
Heartbeat CPU  0 instructions:  325000001 cycles:  375466598 heartbeat IPC: 0.89374 cumulative IPC: 0.67732 (Simulation time: 0 hr 10 min 17 sec) 
Heartbeat CPU  0 instructions:  326000003 cycles:  377046750 heartbeat IPC: 0.63285 cumulative IPC: 0.67711 (Simulation time: 0 hr 10 min 19 sec) 
Heartbeat CPU  0 instructions:  327000001 cycles:  378683854 heartbeat IPC: 0.61083 cumulative IPC: 0.67678 (Simulation time: 0 hr 10 min 21 sec) 
Heartbeat CPU  0 instructions:  328000000 cycles:  380438703 heartbeat IPC: 0.56985 cumulative IPC: 0.67623 (Simulation time: 0 hr 10 min 23 sec) 
Heartbeat CPU  0 instructions:  329000000 cycles:  382241224 heartbeat IPC: 0.55478 cumulative IPC: 0.67558 (Simulation time: 0 hr 10 min 25 sec) 
Heartbeat CPU  0 instructions:  330000000 cycles:  383998499 heartbeat IPC: 0.56906 cumulative IPC: 0.67503 (Simulation time: 0 hr 10 min 28 sec) 
Heartbeat CPU  0 instructions:  331000003 cycles:  385102194 heartbeat IPC: 0.90605 cumulative IPC: 0.67578 (Simulation time: 0 hr 10 min 29 sec) 
Heartbeat CPU  0 instructions:  332000000 cycles:  386678246 heartbeat IPC: 0.63449 cumulative IPC: 0.67559 (Simulation time: 0 hr 10 min 32 sec) 
Heartbeat CPU  0 instructions:  333000000 cycles:  388325084 heartbeat IPC: 0.60722 cumulative IPC: 0.67526 (Simulation time: 0 hr 10 min 34 sec) 
Heartbeat CPU  0 instructions:  334000002 cycles:  390127708 heartbeat IPC: 0.55475 cumulative IPC: 0.67464 (Simulation time: 0 hr 10 min 36 sec) 
Heartbeat CPU  0 instructions:  335000002 cycles:  391995376 heartbeat IPC: 0.53543 cumulative IPC: 0.67389 (Simulation time: 0 hr 10 min 38 sec) 
Heartbeat CPU  0 instructions:  336000000 cycles:  393395036 heartbeat IPC: 0.71446 cumulative IPC: 0.67405 (Simulation time: 0 hr 10 min 40 sec) 
Heartbeat CPU  0 instructions:  337000003 cycles:  394319488 heartbeat IPC: 1.08173 cumulative IPC: 0.67513 (Simulation time: 0 hr 10 min 42 sec) 
Heartbeat CPU  0 instructions:  338000001 cycles:  395704339 heartbeat IPC: 0.72210 cumulative IPC: 0.67531 (Simulation time: 0 hr 10 min 44 sec) 
Heartbeat CPU  0 instructions:  339000002 cycles:  397222795 heartbeat IPC: 0.65856 cumulative IPC: 0.67524 (Simulation time: 0 hr 10 min 47 sec) 
Heartbeat CPU  0 instructions:  340000000 cycles:  399017588 heartbeat IPC: 0.55717 cumulative IPC: 0.67464 (Simulation time: 0 hr 10 min 49 sec) 
Heartbeat CPU  0 instructions:  341000000 cycles:  400860150 heartbeat IPC: 0.54272 cumulative IPC: 0.67396 (Simulation time: 0 hr 10 min 51 sec) 
Heartbeat CPU  0 instructions:  342000001 cycles:  402322050 heartbeat IPC: 0.68404 cumulative IPC: 0.67401 (Simulation time: 0 hr 10 min 53 sec) 
Heartbeat CPU  0 instructions:  343000001 cycles:  403608212 heartbeat IPC: 0.77751 cumulative IPC: 0.67437 (Simulation time: 0 hr 10 min 55 sec) 
Heartbeat CPU  0 instructions:  344000000 cycles:  405130637 heartbeat IPC: 0.65685 cumulative IPC: 0.67430 (Simulation time: 0 hr 10 min 57 sec) 
Heartbeat CPU  0 instructions:  345000000 cycles:  406875362 heartbeat IPC: 0.57316 cumulative IPC: 0.67382 (Simulation time: 0 hr 10 min 59 sec) 
Heartbeat CPU  0 instructions:  346000000 cycles:  408675487 heartbeat IPC: 0.55552 cumulative IPC: 0.67323 (Simulation time: 0 hr 11 min 1 sec) 
Heartbeat CPU  0 instructions:  347000000 cycles:  410409582 heartbeat IPC: 0.57667 cumulative IPC: 0.67278 (Simulation time: 0 hr 11 min 3 sec) 
Heartbeat CPU  0 instructions:  348000000 cycles:  411500860 heartbeat IPC: 0.91636 cumulative IPC: 0.67350 (Simulation time: 0 hr 11 min 5 sec) 
Heartbeat CPU  0 instructions:  349000002 cycles:  413085323 heartbeat IPC: 0.63113 cumulative IPC: 0.67332 (Simulation time: 0 hr 11 min 8 sec) 
Heartbeat CPU  0 instructions:  350000000 cycles:  414715297 heartbeat IPC: 0.61351 cumulative IPC: 0.67305 (Simulation time: 0 hr 11 min 10 sec) 
Heartbeat CPU  0 instructions:  351000000 cycles:  416471605 heartbeat IPC: 0.56938 cumulative IPC: 0.67257 (Simulation time: 0 hr 11 min 12 sec) 
Heartbeat CPU  0 instructions:  352000000 cycles:  418095203 heartbeat IPC: 0.61592 cumulative IPC: 0.67232 (Simulation time: 0 hr 11 min 14 sec) 
Heartbeat CPU  0 instructions:  353000002 cycles:  419223353 heartbeat IPC: 0.88641 cumulative IPC: 0.67296 (Simulation time: 0 hr 11 min 16 sec) 
Heartbeat CPU  0 instructions:  354000000 cycles:  420787497 heartbeat IPC: 0.63933 cumulative IPC: 0.67282 (Simulation time: 0 hr 11 min 18 sec) 
Heartbeat CPU  0 instructions:  355000002 cycles:  422440986 heartbeat IPC: 0.60478 cumulative IPC: 0.67253 (Simulation time: 0 hr 11 min 20 sec) 
Heartbeat CPU  0 instructions:  356000000 cycles:  424170179 heartbeat IPC: 0.57830 cumulative IPC: 0.67210 (Simulation time: 0 hr 11 min 22 sec) 
Heartbeat CPU  0 instructions:  357000000 cycles:  425802272 heartbeat IPC: 0.61271 cumulative IPC: 0.67185 (Simulation time: 0 hr 11 min 25 sec) 
Heartbeat CPU  0 instructions:  358000002 cycles:  426972406 heartbeat IPC: 0.85460 cumulative IPC: 0.67240 (Simulation time: 0 hr 11 min 27 sec) 
Heartbeat CPU  0 instructions:  359000002 cycles:  428549631 heartbeat IPC: 0.63402 cumulative IPC: 0.67225 (Simulation time: 0 hr 11 min 29 sec) 
Heartbeat CPU  0 instructions:  360000000 cycles:  430204443 heartbeat IPC: 0.60430 cumulative IPC: 0.67196 (Simulation time: 0 hr 11 min 31 sec) 
Heartbeat CPU  0 instructions:  361000002 cycles:  431935718 heartbeat IPC: 0.57761 cumulative IPC: 0.67154 (Simulation time: 0 hr 11 min 33 sec) 
Heartbeat CPU  0 instructions:  362000001 cycles:  433706853 heartbeat IPC: 0.56461 cumulative IPC: 0.67105 (Simulation time: 0 hr 11 min 35 sec) 
Heartbeat CPU  0 instructions:  363000002 cycles:  435103489 heartbeat IPC: 0.71601 cumulative IPC: 0.67121 (Simulation time: 0 hr 11 min 37 sec) 
Heartbeat CPU  0 instructions:  364000000 cycles:  436417128 heartbeat IPC: 0.76124 cumulative IPC: 0.67151 (Simulation time: 0 hr 11 min 39 sec) 
Heartbeat CPU  0 instructions:  365000002 cycles:  437930180 heartbeat IPC: 0.66092 cumulative IPC: 0.67147 (Simulation time: 0 hr 11 min 41 sec) 
Heartbeat CPU  0 instructions:  366000000 cycles:  439731528 heartbeat IPC: 0.55514 cumulative IPC: 0.67094 (Simulation time: 0 hr 11 min 44 sec) 
Heartbeat CPU  0 instructions:  367000000 cycles:  441590142 heartbeat IPC: 0.53804 cumulative IPC: 0.67032 (Simulation time: 0 hr 11 min 46 sec) 
Heartbeat CPU  0 instructions:  368000000 cycles:  443160807 heartbeat IPC: 0.63667 cumulative IPC: 0.67019 (Simulation time: 0 hr 11 min 48 sec) 
Heartbeat CPU  0 instructions:  369000001 cycles:  444381702 heartbeat IPC: 0.81907 cumulative IPC: 0.67064 (Simulation time: 0 hr 11 min 50 sec) 
Heartbeat CPU  0 instructions:  370000002 cycles:  445933603 heartbeat IPC: 0.64437 cumulative IPC: 0.67054 (Simulation time: 0 hr 11 min 52 sec) 
Heartbeat CPU  0 instructions:  371000000 cycles:  447751017 heartbeat IPC: 0.55023 cumulative IPC: 0.67000 (Simulation time: 0 hr 11 min 54 sec) 
Heartbeat CPU  0 instructions:  372000000 cycles:  449701529 heartbeat IPC: 0.51269 cumulative IPC: 0.66925 (Simulation time: 0 hr 11 min 56 sec) 
Heartbeat CPU  0 instructions:  373000001 cycles:  450938406 heartbeat IPC: 0.80849 cumulative IPC: 0.66967 (Simulation time: 0 hr 11 min 59 sec) 
Heartbeat CPU  0 instructions:  374000001 cycles:  452420476 heartbeat IPC: 0.67473 cumulative IPC: 0.66969 (Simulation time: 0 hr 12 min 1 sec) 
Heartbeat CPU  0 instructions:  375000000 cycles:  453926600 heartbeat IPC: 0.66396 cumulative IPC: 0.66967 (Simulation time: 0 hr 12 min 3 sec) 
Heartbeat CPU  0 instructions:  376000000 cycles:  455876953 heartbeat IPC: 0.51273 cumulative IPC: 0.66892 (Simulation time: 0 hr 12 min 5 sec) 
Heartbeat CPU  0 instructions:  377000001 cycles:  457677163 heartbeat IPC: 0.55549 cumulative IPC: 0.66843 (Simulation time: 0 hr 12 min 7 sec) 
Heartbeat CPU  0 instructions:  378000002 cycles:  458779745 heartbeat IPC: 0.90696 cumulative IPC: 0.66906 (Simulation time: 0 hr 12 min 9 sec) 
Heartbeat CPU  0 instructions:  379000003 cycles:  460362992 heartbeat IPC: 0.63161 cumulative IPC: 0.66892 (Simulation time: 0 hr 12 min 11 sec) 
Heartbeat CPU  0 instructions:  380000000 cycles:  462023787 heartbeat IPC: 0.60212 cumulative IPC: 0.66866 (Simulation time: 0 hr 12 min 14 sec) 
Heartbeat CPU  0 instructions:  381000001 cycles:  463916254 heartbeat IPC: 0.52841 cumulative IPC: 0.66803 (Simulation time: 0 hr 12 min 16 sec) 
Heartbeat CPU  0 instructions:  382000001 cycles:  465437249 heartbeat IPC: 0.65746 cumulative IPC: 0.66799 (Simulation time: 0 hr 12 min 18 sec) 
Heartbeat CPU  0 instructions:  383000003 cycles:  466723583 heartbeat IPC: 0.77740 cumulative IPC: 0.66832 (Simulation time: 0 hr 12 min 20 sec) 
Heartbeat CPU  0 instructions:  384000000 cycles:  468248068 heartbeat IPC: 0.65596 cumulative IPC: 0.66828 (Simulation time: 0 hr 12 min 22 sec) 
Heartbeat CPU  0 instructions:  385000000 cycles:  470138746 heartbeat IPC: 0.52891 cumulative IPC: 0.66766 (Simulation time: 0 hr 12 min 24 sec) 
Heartbeat CPU  0 instructions:  386000000 cycles:  472116913 heartbeat IPC: 0.50552 cumulative IPC: 0.66691 (Simulation time: 0 hr 12 min 26 sec) 
Heartbeat CPU  0 instructions:  387000000 cycles:  473450945 heartbeat IPC: 0.74961 cumulative IPC: 0.66717 (Simulation time: 0 hr 12 min 28 sec) 
Heartbeat CPU  0 instructions:  388000000 cycles:  474879491 heartbeat IPC: 0.70001 cumulative IPC: 0.66728 (Simulation time: 0 hr 12 min 30 sec) 
Heartbeat CPU  0 instructions:  389000000 cycles:  476393832 heartbeat IPC: 0.66035 cumulative IPC: 0.66725 (Simulation time: 0 hr 12 min 33 sec) 
Heartbeat CPU  0 instructions:  390000003 cycles:  478378915 heartbeat IPC: 0.50376 cumulative IPC: 0.66651 (Simulation time: 0 hr 12 min 35 sec) 
Heartbeat CPU  0 instructions:  391000003 cycles:  480259944 heartbeat IPC: 0.53162 cumulative IPC: 0.66593 (Simulation time: 0 hr 12 min 37 sec) 
Heartbeat CPU  0 instructions:  392000000 cycles:  481379536 heartbeat IPC: 0.89318 cumulative IPC: 0.66651 (Simulation time: 0 hr 12 min 39 sec) 
Heartbeat CPU  0 instructions:  393000001 cycles:  482944979 heartbeat IPC: 0.63880 cumulative IPC: 0.66641 (Simulation time: 0 hr 12 min 41 sec) 
Heartbeat CPU  0 instructions:  394000002 cycles:  484614706 heartbeat IPC: 0.59890 cumulative IPC: 0.66615 (Simulation time: 0 hr 12 min 43 sec) 
Heartbeat CPU  0 instructions:  395000002 cycles:  486542063 heartbeat IPC: 0.51885 cumulative IPC: 0.66551 (Simulation time: 0 hr 12 min 46 sec) 
Heartbeat CPU  0 instructions:  396000000 cycles:  488344664 heartbeat IPC: 0.55475 cumulative IPC: 0.66506 (Simulation time: 0 hr 12 min 48 sec) 
Heartbeat CPU  0 instructions:  397000000 cycles:  489269595 heartbeat IPC: 1.08116 cumulative IPC: 0.66593 (Simulation time: 0 hr 12 min 50 sec) 
Heartbeat CPU  0 instructions:  398000001 cycles:  490342657 heartbeat IPC: 0.93191 cumulative IPC: 0.66657 (Simulation time: 0 hr 12 min 52 sec) 
Heartbeat CPU  0 instructions:  399000000 cycles:  491927702 heartbeat IPC: 0.63090 cumulative IPC: 0.66644 (Simulation time: 0 hr 12 min 54 sec) 
Heartbeat CPU  0 instructions:  400000000 cycles:  493594758 heartbeat IPC: 0.59986 cumulative IPC: 0.66619 (Simulation time: 0 hr 12 min 56 sec) 
Heartbeat CPU  0 instructions:  401000002 cycles:  495460139 heartbeat IPC: 0.53608 cumulative IPC: 0.66566 (Simulation time: 0 hr 12 min 58 sec) 
Heartbeat CPU  0 instructions:  402000003 cycles:  497253760 heartbeat IPC: 0.55753 cumulative IPC: 0.66523 (Simulation time: 0 hr 13 min 0 sec) 
Heartbeat CPU  0 instructions:  403000002 cycles:  498416512 heartbeat IPC: 0.86003 cumulative IPC: 0.66573 (Simulation time: 0 hr 13 min 2 sec) 
Heartbeat CPU  0 instructions:  404000000 cycles:  499945591 heartbeat IPC: 0.65399 cumulative IPC: 0.66569 (Simulation time: 0 hr 13 min 4 sec) 
Heartbeat CPU  0 instructions:  405000001 cycles:  501478844 heartbeat IPC: 0.65221 cumulative IPC: 0.66564 (Simulation time: 0 hr 13 min 6 sec) 
Heartbeat CPU  0 instructions:  406000003 cycles:  503438084 heartbeat IPC: 0.51040 cumulative IPC: 0.66498 (Simulation time: 0 hr 13 min 9 sec) 
Heartbeat CPU  0 instructions:  407000000 cycles:  505229356 heartbeat IPC: 0.55826 cumulative IPC: 0.66457 (Simulation time: 0 hr 13 min 11 sec) 
Heartbeat CPU  0 instructions:  408000000 cycles:  506574240 heartbeat IPC: 0.74356 cumulative IPC: 0.66480 (Simulation time: 0 hr 13 min 13 sec) 
Heartbeat CPU  0 instructions:  409000001 cycles:  507963610 heartbeat IPC: 0.71975 cumulative IPC: 0.66496 (Simulation time: 0 hr 13 min 15 sec) 
Heartbeat CPU  0 instructions:  410000002 cycles:  509487415 heartbeat IPC: 0.65625 cumulative IPC: 0.66493 (Simulation time: 0 hr 13 min 17 sec) 
Heartbeat CPU  0 instructions:  411000001 cycles:  511354152 heartbeat IPC: 0.53569 cumulative IPC: 0.66442 (Simulation time: 0 hr 13 min 19 sec) 
Heartbeat CPU  0 instructions:  412000000 cycles:  513254078 heartbeat IPC: 0.52634 cumulative IPC: 0.66386 (Simulation time: 0 hr 13 min 21 sec) 
Heartbeat CPU  0 instructions:  413000001 cycles:  514635233 heartbeat IPC: 0.72403 cumulative IPC: 0.66403 (Simulation time: 0 hr 13 min 23 sec) 
Heartbeat CPU  0 instructions:  414000001 cycles:  516030852 heartbeat IPC: 0.71653 cumulative IPC: 0.66419 (Simulation time: 0 hr 13 min 26 sec) 
Heartbeat CPU  0 instructions:  415000002 cycles:  517541014 heartbeat IPC: 0.66218 cumulative IPC: 0.66418 (Simulation time: 0 hr 13 min 28 sec) 
Heartbeat CPU  0 instructions:  416000000 cycles:  519337496 heartbeat IPC: 0.55664 cumulative IPC: 0.66378 (Simulation time: 0 hr 13 min 30 sec) 
Heartbeat CPU  0 instructions:  417000003 cycles:  521221153 heartbeat IPC: 0.53088 cumulative IPC: 0.66325 (Simulation time: 0 hr 13 min 32 sec) 
Heartbeat CPU  0 instructions:  418000001 cycles:  523089830 heartbeat IPC: 0.53514 cumulative IPC: 0.66275 (Simulation time: 0 hr 13 min 34 sec) 
Heartbeat CPU  0 instructions:  419000000 cycles:  524464697 heartbeat IPC: 0.72734 cumulative IPC: 0.66294 (Simulation time: 0 hr 13 min 36 sec) 
Heartbeat CPU  0 instructions:  420000000 cycles:  525875587 heartbeat IPC: 0.70877 cumulative IPC: 0.66307 (Simulation time: 0 hr 13 min 38 sec) 
Heartbeat CPU  0 instructions:  421000001 cycles:  527398438 heartbeat IPC: 0.65666 cumulative IPC: 0.66305 (Simulation time: 0 hr 13 min 41 sec) 
Heartbeat CPU  0 instructions:  422000000 cycles:  529167128 heartbeat IPC: 0.56539 cumulative IPC: 0.66270 (Simulation time: 0 hr 13 min 43 sec) 
Heartbeat CPU  0 instructions:  423000000 cycles:  530927725 heartbeat IPC: 0.56799 cumulative IPC: 0.66236 (Simulation time: 0 hr 13 min 45 sec) 
Heartbeat CPU  0 instructions:  424000000 cycles:  532644646 heartbeat IPC: 0.58244 cumulative IPC: 0.66208 (Simulation time: 0 hr 13 min 47 sec) 
Heartbeat CPU  0 instructions:  425000001 cycles:  534385975 heartbeat IPC: 0.57427 cumulative IPC: 0.66176 (Simulation time: 0 hr 13 min 49 sec) 
Heartbeat CPU  0 instructions:  426000001 cycles:  535491546 heartbeat IPC: 0.90451 cumulative IPC: 0.66231 (Simulation time: 0 hr 13 min 51 sec) 
Heartbeat CPU  0 instructions:  427000000 cycles:  537068405 heartbeat IPC: 0.63417 cumulative IPC: 0.66222 (Simulation time: 0 hr 13 min 53 sec) 
Heartbeat CPU  0 instructions:  428000000 cycles:  538677957 heartbeat IPC: 0.62129 cumulative IPC: 0.66209 (Simulation time: 0 hr 13 min 56 sec) 
Heartbeat CPU  0 instructions:  429000002 cycles:  540438723 heartbeat IPC: 0.56794 cumulative IPC: 0.66175 (Simulation time: 0 hr 13 min 58 sec) 
Heartbeat CPU  0 instructions:  430000001 cycles:  542189673 heartbeat IPC: 0.57112 cumulative IPC: 0.66144 (Simulation time: 0 hr 14 min 0 sec) 
Heartbeat CPU  0 instructions:  431000001 cycles:  543926776 heartbeat IPC: 0.57567 cumulative IPC: 0.66114 (Simulation time: 0 hr 14 min 2 sec) 
Heartbeat CPU  0 instructions:  432000000 cycles:  545298239 heartbeat IPC: 0.72915 cumulative IPC: 0.66132 (Simulation time: 0 hr 14 min 4 sec) 
Heartbeat CPU  0 instructions:  433000003 cycles:  546675640 heartbeat IPC: 0.72601 cumulative IPC: 0.66150 (Simulation time: 0 hr 14 min 6 sec) 
Heartbeat CPU  0 instructions:  434000003 cycles:  548201320 heartbeat IPC: 0.65545 cumulative IPC: 0.66148 (Simulation time: 0 hr 14 min 8 sec) 
Heartbeat CPU  0 instructions:  435000000 cycles:  549901239 heartbeat IPC: 0.58826 cumulative IPC: 0.66124 (Simulation time: 0 hr 14 min 10 sec) 
Heartbeat CPU  0 instructions:  436000000 cycles:  551669830 heartbeat IPC: 0.56542 cumulative IPC: 0.66090 (Simulation time: 0 hr 14 min 13 sec) 
Heartbeat CPU  0 instructions:  437000001 cycles:  553437545 heartbeat IPC: 0.56570 cumulative IPC: 0.66057 (Simulation time: 0 hr 14 min 15 sec) 
Heartbeat CPU  0 instructions:  438000000 cycles:  554786907 heartbeat IPC: 0.74109 cumulative IPC: 0.66079 (Simulation time: 0 hr 14 min 17 sec) 
Heartbeat CPU  0 instructions:  439000002 cycles:  556151131 heartbeat IPC: 0.73302 cumulative IPC: 0.66098 (Simulation time: 0 hr 14 min 19 sec) 
Heartbeat CPU  0 instructions:  440000000 cycles:  557669733 heartbeat IPC: 0.65850 cumulative IPC: 0.66097 (Simulation time: 0 hr 14 min 21 sec) 
Heartbeat CPU  0 instructions:  441000002 cycles:  559365619 heartbeat IPC: 0.58966 cumulative IPC: 0.66074 (Simulation time: 0 hr 14 min 23 sec) 
Heartbeat CPU  0 instructions:  442000000 cycles:  561134965 heartbeat IPC: 0.56518 cumulative IPC: 0.66041 (Simulation time: 0 hr 14 min 25 sec) 
Heartbeat CPU  0 instructions:  443000002 cycles:  562906166 heartbeat IPC: 0.56459 cumulative IPC: 0.66008 (Simulation time: 0 hr 14 min 28 sec) 
Heartbeat CPU  0 instructions:  444000000 cycles:  564219276 heartbeat IPC: 0.76155 cumulative IPC: 0.66034 (Simulation time: 0 hr 14 min 29 sec) 
Heartbeat CPU  0 instructions:  445000000 cycles:  565619653 heartbeat IPC: 0.71409 cumulative IPC: 0.66048 (Simulation time: 0 hr 14 min 32 sec) 
Heartbeat CPU  0 instructions:  446000003 cycles:  567143714 heartbeat IPC: 0.65614 cumulative IPC: 0.66047 (Simulation time: 0 hr 14 min 34 sec) 
Heartbeat CPU  0 instructions:  447000003 cycles:  568873684 heartbeat IPC: 0.57804 cumulative IPC: 0.66020 (Simulation time: 0 hr 14 min 36 sec) 
Heartbeat CPU  0 instructions:  448000000 cycles:  570648351 heartbeat IPC: 0.56348 cumulative IPC: 0.65987 (Simulation time: 0 hr 14 min 38 sec) 
Heartbeat CPU  0 instructions:  449000001 cycles:  572373587 heartbeat IPC: 0.57963 cumulative IPC: 0.65961 (Simulation time: 0 hr 14 min 40 sec) 
Heartbeat CPU  0 instructions:  450000000 cycles:  574057840 heartbeat IPC: 0.59373 cumulative IPC: 0.65940 (Simulation time: 0 hr 14 min 42 sec) 
Heartbeat CPU  0 instructions:  451000001 cycles:  575174184 heartbeat IPC: 0.89578 cumulative IPC: 0.65990 (Simulation time: 0 hr 14 min 44 sec) 
Heartbeat CPU  0 instructions:  452000000 cycles:  576739231 heartbeat IPC: 0.63896 cumulative IPC: 0.65984 (Simulation time: 0 hr 14 min 47 sec) 
Heartbeat CPU  0 instructions:  453000000 cycles:  578352934 heartbeat IPC: 0.61969 cumulative IPC: 0.65972 (Simulation time: 0 hr 14 min 49 sec) 
Heartbeat CPU  0 instructions:  454000002 cycles:  580075768 heartbeat IPC: 0.58044 cumulative IPC: 0.65946 (Simulation time: 0 hr 14 min 51 sec) 
Heartbeat CPU  0 instructions:  455000002 cycles:  581826355 heartbeat IPC: 0.57124 cumulative IPC: 0.65918 (Simulation time: 0 hr 14 min 53 sec) 
Heartbeat CPU  0 instructions:  456000000 cycles:  583543000 heartbeat IPC: 0.58253 cumulative IPC: 0.65893 (Simulation time: 0 hr 14 min 55 sec) 
Heartbeat CPU  0 instructions:  457000003 cycles:  584864773 heartbeat IPC: 0.75656 cumulative IPC: 0.65917 (Simulation time: 0 hr 14 min 57 sec) 
Heartbeat CPU  0 instructions:  458000001 cycles:  586289147 heartbeat IPC: 0.70206 cumulative IPC: 0.65928 (Simulation time: 0 hr 14 min 59 sec) 
Heartbeat CPU  0 instructions:  459000000 cycles:  587807792 heartbeat IPC: 0.65848 cumulative IPC: 0.65928 (Simulation time: 0 hr 15 min 2 sec) 
Heartbeat CPU  0 instructions:  460000000 cycles:  589471272 heartbeat IPC: 0.60115 cumulative IPC: 0.65910 (Simulation time: 0 hr 15 min 4 sec) 
Heartbeat CPU  0 instructions:  461000002 cycles:  591220246 heartbeat IPC: 0.57176 cumulative IPC: 0.65882 (Simulation time: 0 hr 15 min 6 sec) 
Heartbeat CPU  0 instructions:  462000000 cycles:  592943814 heartbeat IPC: 0.58019 cumulative IPC: 0.65858 (Simulation time: 0 hr 15 min 8 sec) 
Heartbeat CPU  0 instructions:  463000003 cycles:  594299884 heartbeat IPC: 0.73743 cumulative IPC: 0.65877 (Simulation time: 0 hr 15 min 10 sec) 
Heartbeat CPU  0 instructions:  464000000 cycles:  595665982 heartbeat IPC: 0.73201 cumulative IPC: 0.65895 (Simulation time: 0 hr 15 min 12 sec) 
Heartbeat CPU  0 instructions:  465000000 cycles:  597188603 heartbeat IPC: 0.65676 cumulative IPC: 0.65895 (Simulation time: 0 hr 15 min 14 sec) 
Heartbeat CPU  0 instructions:  466000002 cycles:  598841873 heartbeat IPC: 0.60486 cumulative IPC: 0.65879 (Simulation time: 0 hr 15 min 17 sec) 
Heartbeat CPU  0 instructions:  467000002 cycles:  600574471 heartbeat IPC: 0.57717 cumulative IPC: 0.65853 (Simulation time: 0 hr 15 min 19 sec) 
Heartbeat CPU  0 instructions:  468000000 cycles:  602303591 heartbeat IPC: 0.57833 cumulative IPC: 0.65828 (Simulation time: 0 hr 15 min 21 sec) 
Heartbeat CPU  0 instructions:  469000001 cycles:  603369383 heartbeat IPC: 0.93827 cumulative IPC: 0.65882 (Simulation time: 0 hr 15 min 23 sec) 
Heartbeat CPU  0 instructions:  470000002 cycles:  604931448 heartbeat IPC: 0.64018 cumulative IPC: 0.65877 (Simulation time: 0 hr 15 min 25 sec) 
Heartbeat CPU  0 instructions:  471000001 cycles:  606489422 heartbeat IPC: 0.64186 cumulative IPC: 0.65872 (Simulation time: 0 hr 15 min 27 sec) 
Heartbeat CPU  0 instructions:  472000000 cycles:  608214104 heartbeat IPC: 0.57982 cumulative IPC: 0.65848 (Simulation time: 0 hr 15 min 29 sec) 
Heartbeat CPU  0 instructions:  473000003 cycles:  609946760 heartbeat IPC: 0.57715 cumulative IPC: 0.65823 (Simulation time: 0 hr 15 min 31 sec) 
Heartbeat CPU  0 instructions:  474000003 cycles:  611203836 heartbeat IPC: 0.79550 cumulative IPC: 0.65853 (Simulation time: 0 hr 15 min 33 sec) 
Heartbeat CPU  0 instructions:  475000003 cycles:  612151063 heartbeat IPC: 1.05571 cumulative IPC: 0.65919 (Simulation time: 0 hr 15 min 35 sec) 
Heartbeat CPU  0 instructions:  476000000 cycles:  613579515 heartbeat IPC: 0.70006 cumulative IPC: 0.65930 (Simulation time: 0 hr 15 min 38 sec) 
Heartbeat CPU  0 instructions:  477000000 cycles:  615090590 heartbeat IPC: 0.66178 cumulative IPC: 0.65930 (Simulation time: 0 hr 15 min 40 sec) 
Heartbeat CPU  0 instructions:  478000002 cycles:  616776622 heartbeat IPC: 0.59311 cumulative IPC: 0.65911 (Simulation time: 0 hr 15 min 42 sec) 
Heartbeat CPU  0 instructions:  479000003 cycles:  618548893 heartbeat IPC: 0.56425 cumulative IPC: 0.65882 (Simulation time: 0 hr 15 min 44 sec) 
Heartbeat CPU  0 instructions:  480000000 cycles:  619984604 heartbeat IPC: 0.69652 cumulative IPC: 0.65891 (Simulation time: 0 hr 15 min 46 sec) 
Heartbeat CPU  0 instructions:  481000002 cycles:  621249119 heartbeat IPC: 0.79082 cumulative IPC: 0.65920 (Simulation time: 0 hr 15 min 48 sec) 
Heartbeat CPU  0 instructions:  482000000 cycles:  622777029 heartbeat IPC: 0.65449 cumulative IPC: 0.65919 (Simulation time: 0 hr 15 min 50 sec) 
Heartbeat CPU  0 instructions:  483000003 cycles:  624479423 heartbeat IPC: 0.58741 cumulative IPC: 0.65898 (Simulation time: 0 hr 15 min 53 sec) 
Heartbeat CPU  0 instructions:  484000000 cycles:  626196595 heartbeat IPC: 0.58235 cumulative IPC: 0.65875 (Simulation time: 0 hr 15 min 55 sec) 
Heartbeat CPU  0 instructions:  485000003 cycles:  627904858 heartbeat IPC: 0.58539 cumulative IPC: 0.65854 (Simulation time: 0 hr 15 min 57 sec) 
Heartbeat CPU  0 instructions:  486000002 cycles:  629658767 heartbeat IPC: 0.57015 cumulative IPC: 0.65827 (Simulation time: 0 hr 15 min 59 sec) 
Heartbeat CPU  0 instructions:  487000002 cycles:  630761207 heartbeat IPC: 0.90708 cumulative IPC: 0.65874 (Simulation time: 0 hr 16 min 1 sec) 
Heartbeat CPU  0 instructions:  488000000 cycles:  632326431 heartbeat IPC: 0.63888 cumulative IPC: 0.65869 (Simulation time: 0 hr 16 min 3 sec) 
Heartbeat CPU  0 instructions:  489000000 cycles:  633889516 heartbeat IPC: 0.63976 cumulative IPC: 0.65864 (Simulation time: 0 hr 16 min 5 sec) 
Heartbeat CPU  0 instructions:  490000000 cycles:  635618444 heartbeat IPC: 0.57839 cumulative IPC: 0.65840 (Simulation time: 0 hr 16 min 8 sec) 
Heartbeat CPU  0 instructions:  491000002 cycles:  637370099 heartbeat IPC: 0.57089 cumulative IPC: 0.65814 (Simulation time: 0 hr 16 min 10 sec) 
Heartbeat CPU  0 instructions:  492000000 cycles:  639124833 heartbeat IPC: 0.56989 cumulative IPC: 0.65788 (Simulation time: 0 hr 16 min 12 sec) 
Heartbeat CPU  0 instructions:  493000002 cycles:  640362962 heartbeat IPC: 0.80767 cumulative IPC: 0.65819 (Simulation time: 0 hr 16 min 14 sec) 
Heartbeat CPU  0 instructions:  494000000 cycles:  641842954 heartbeat IPC: 0.67568 cumulative IPC: 0.65824 (Simulation time: 0 hr 16 min 16 sec) 
Heartbeat CPU  0 instructions:  495000001 cycles:  643351055 heartbeat IPC: 0.66309 cumulative IPC: 0.65825 (Simulation time: 0 hr 16 min 18 sec) 
Heartbeat CPU  0 instructions:  496000000 cycles:  645084862 heartbeat IPC: 0.57676 cumulative IPC: 0.65801 (Simulation time: 0 hr 16 min 20 sec) 
Heartbeat CPU  0 instructions:  497000001 cycles:  646851765 heartbeat IPC: 0.56596 cumulative IPC: 0.65775 (Simulation time: 0 hr 16 min 23 sec) 
Heartbeat CPU  0 instructions:  498000000 cycles:  648606555 heartbeat IPC: 0.56987 cumulative IPC: 0.65749 (Simulation time: 0 hr 16 min 25 sec) 
Heartbeat CPU  0 instructions:  499000003 cycles:  649966005 heartbeat IPC: 0.73559 cumulative IPC: 0.65767 (Simulation time: 0 hr 16 min 27 sec) 
Heartbeat CPU  0 instructions:  500000000 cycles:  651373980 heartbeat IPC: 0.71024 cumulative IPC: 0.65779 (Simulation time: 0 hr 16 min 29 sec) 
Heartbeat CPU  0 instructions:  501000002 cycles:  652901782 heartbeat IPC: 0.65454 cumulative IPC: 0.65778 (Simulation time: 0 hr 16 min 31 sec) 
Heartbeat CPU  0 instructions:  502000000 cycles:  654641913 heartbeat IPC: 0.57467 cumulative IPC: 0.65754 (Simulation time: 0 hr 16 min 33 sec) 
Heartbeat CPU  0 instructions:  503000000 cycles:  656363882 heartbeat IPC: 0.58073 cumulative IPC: 0.65733 (Simulation time: 0 hr 16 min 35 sec) 
Heartbeat CPU  0 instructions:  504000000 cycles:  658140590 heartbeat IPC: 0.56284 cumulative IPC: 0.65705 (Simulation time: 0 hr 16 min 37 sec) 
Heartbeat CPU  0 instructions:  505000000 cycles:  659828758 heartbeat IPC: 0.59236 cumulative IPC: 0.65688 (Simulation time: 0 hr 16 min 40 sec) 
Heartbeat CPU  0 instructions:  506000001 cycles:  661009823 heartbeat IPC: 0.84669 cumulative IPC: 0.65724 (Simulation time: 0 hr 16 min 42 sec) 
Heartbeat CPU  0 instructions:  507000000 cycles:  662590736 heartbeat IPC: 0.63255 cumulative IPC: 0.65718 (Simulation time: 0 hr 16 min 44 sec) 
Heartbeat CPU  0 instructions:  508000000 cycles:  664187818 heartbeat IPC: 0.62614 cumulative IPC: 0.65710 (Simulation time: 0 hr 16 min 46 sec) 
Heartbeat CPU  0 instructions:  509000003 cycles:  665955232 heartbeat IPC: 0.56580 cumulative IPC: 0.65684 (Simulation time: 0 hr 16 min 48 sec) 
Heartbeat CPU  0 instructions:  510000002 cycles:  667717105 heartbeat IPC: 0.56758 cumulative IPC: 0.65659 (Simulation time: 0 hr 16 min 50 sec) 
Heartbeat CPU  0 instructions:  511000003 cycles:  669491991 heartbeat IPC: 0.56342 cumulative IPC: 0.65632 (Simulation time: 0 hr 16 min 53 sec) 
Heartbeat CPU  0 instructions:  512000000 cycles:  671101688 heartbeat IPC: 0.62123 cumulative IPC: 0.65623 (Simulation time: 0 hr 16 min 55 sec) 
Heartbeat CPU  0 instructions:  513000000 cycles:  672358484 heartbeat IPC: 0.79567 cumulative IPC: 0.65651 (Simulation time: 0 hr 16 min 57 sec) 
Heartbeat CPU  0 instructions:  514000000 cycles:  673920567 heartbeat IPC: 0.64017 cumulative IPC: 0.65647 (Simulation time: 0 hr 16 min 59 sec) 
Heartbeat CPU  0 instructions:  515000000 cycles:  675594391 heartbeat IPC: 0.59743 cumulative IPC: 0.65631 (Simulation time: 0 hr 17 min 1 sec) 
Heartbeat CPU  0 instructions:  516000000 cycles:  677340590 heartbeat IPC: 0.57267 cumulative IPC: 0.65608 (Simulation time: 0 hr 17 min 3 sec) 
Heartbeat CPU  0 instructions:  517000000 cycles:  679068676 heartbeat IPC: 0.57867 cumulative IPC: 0.65587 (Simulation time: 0 hr 17 min 5 sec) 
Heartbeat CPU  0 instructions:  518000003 cycles:  680839066 heartbeat IPC: 0.56485 cumulative IPC: 0.65562 (Simulation time: 0 hr 17 min 8 sec) 
Heartbeat CPU  0 instructions:  519000003 cycles:  682360627 heartbeat IPC: 0.65722 cumulative IPC: 0.65562 (Simulation time: 0 hr 17 min 10 sec) 
Heartbeat CPU  0 instructions:  520000000 cycles:  683686580 heartbeat IPC: 0.75417 cumulative IPC: 0.65583 (Simulation time: 0 hr 17 min 12 sec) 
Heartbeat CPU  0 instructions:  521000001 cycles:  685206362 heartbeat IPC: 0.65799 cumulative IPC: 0.65583 (Simulation time: 0 hr 17 min 14 sec) 
Heartbeat CPU  0 instructions:  522000001 cycles:  686922487 heartbeat IPC: 0.58271 cumulative IPC: 0.65564 (Simulation time: 0 hr 17 min 16 sec) 
Heartbeat CPU  0 instructions:  523000000 cycles:  688664554 heartbeat IPC: 0.57403 cumulative IPC: 0.65542 (Simulation time: 0 hr 17 min 18 sec) 
Heartbeat CPU  0 instructions:  524000000 cycles:  690346764 heartbeat IPC: 0.59446 cumulative IPC: 0.65526 (Simulation time: 0 hr 17 min 20 sec) 
Heartbeat CPU  0 instructions:  525000001 cycles:  692125398 heartbeat IPC: 0.56223 cumulative IPC: 0.65500 (Simulation time: 0 hr 17 min 23 sec) 
Heartbeat CPU  0 instructions:  526000001 cycles:  693566516 heartbeat IPC: 0.69391 cumulative IPC: 0.65509 (Simulation time: 0 hr 17 min 25 sec) 
Heartbeat CPU  0 instructions:  527000002 cycles:  694975166 heartbeat IPC: 0.70990 cumulative IPC: 0.65521 (Simulation time: 0 hr 17 min 27 sec) 
Heartbeat CPU  0 instructions:  528000000 cycles:  696481248 heartbeat IPC: 0.66397 cumulative IPC: 0.65523 (Simulation time: 0 hr 17 min 29 sec) 
Heartbeat CPU  0 instructions:  529000003 cycles:  698224920 heartbeat IPC: 0.57350 cumulative IPC: 0.65501 (Simulation time: 0 hr 17 min 31 sec) 
Heartbeat CPU  0 instructions:  530000003 cycles:  699946574 heartbeat IPC: 0.58084 cumulative IPC: 0.65482 (Simulation time: 0 hr 17 min 33 sec) 
Heartbeat CPU  0 instructions:  531000002 cycles:  701632483 heartbeat IPC: 0.59315 cumulative IPC: 0.65466 (Simulation time: 0 hr 17 min 35 sec) 
Heartbeat CPU  0 instructions:  532000000 cycles:  703417986 heartbeat IPC: 0.56007 cumulative IPC: 0.65440 (Simulation time: 0 hr 17 min 37 sec) 
Heartbeat CPU  0 instructions:  533000000 cycles:  704846602 heartbeat IPC: 0.69998 cumulative IPC: 0.65450 (Simulation time: 0 hr 17 min 39 sec) 
[...]
Heartbeat CPU  0 instructions:  486000003 cycles: 3793811429 heartbeat IPC: 0.10277 cumulative IPC: 0.10327 (Simulation time: 0 hr 37 min 52 sec) 
Heartbeat CPU  0 instructions:  487000000 cycles: 3803565781 heartbeat IPC: 0.10252 cumulative IPC: 0.10326 (Simulation time: 0 hr 37 min 57 sec) 
Heartbeat CPU  0 instructions:  488000000 cycles: 3813325186 heartbeat IPC: 0.10247 cumulative IPC: 0.10326 (Simulation time: 0 hr 38 min 2 sec) 
Heartbeat CPU  0 instructions:  489000001 cycles: 3823083807 heartbeat IPC: 0.10247 cumulative IPC: 0.10326 (Simulation time: 0 hr 38 min 8 sec) 
Heartbeat CPU  0 instructions:  490000000 cycles: 3832851830 heartbeat IPC: 0.10237 cumulative IPC: 0.10326 (Simulation time: 0 hr 38 min 13 sec) 
Heartbeat CPU  0 instructions:  491000001 cycles: 3842657183 heartbeat IPC: 0.10199 cumulative IPC: 0.10325 (Simulation time: 0 hr 38 min 19 sec) 
Heartbeat CPU  0 instructions:  492000000 cycles: 3852406368 heartbeat IPC: 0.10257 cumulative IPC: 0.10325 (Simulation time: 0 hr 38 min 24 sec) 
Heartbeat CPU  0 instructions:  493000000 cycles: 3862163609 heartbeat IPC: 0.10249 cumulative IPC: 0.10325 (Simulation time: 0 hr 38 min 30 sec) 
Heartbeat CPU  0 instructions:  494000000 cycles: 3871902265 heartbeat IPC: 0.10268 cumulative IPC: 0.10325 (Simulation time: 0 hr 38 min 35 sec) 
Heartbeat CPU  0 instructions:  495000001 cycles: 3881654387 heartbeat IPC: 0.10254 cumulative IPC: 0.10325 (Simulation time: 0 hr 38 min 41 sec) 
Heartbeat CPU  0 instructions:  496000000 cycles: 3891457024 heartbeat IPC: 0.10201 cumulative IPC: 0.10324 (Simulation time: 0 hr 38 min 46 sec) 
Heartbeat CPU  0 instructions:  497000000 cycles: 3901177006 heartbeat IPC: 0.10288 cumulative IPC: 0.10324 (Simulation time: 0 hr 38 min 52 sec) 
Heartbeat CPU  0 instructions:  498000003 cycles: 3910906191 heartbeat IPC: 0.10278 cumulative IPC: 0.10324 (Simulation time: 0 hr 38 min 57 sec) 
Heartbeat CPU  0 instructions:  499000002 cycles: 3920667806 heartbeat IPC: 0.10244 cumulative IPC: 0.10324 (Simulation time: 0 hr 39 min 2 sec) 
Heartbeat CPU  0 instructions:  500000000 cycles: 3930429674 heartbeat IPC: 0.10244 cumulative IPC: 0.10324 (Simulation time: 0 hr 39 min 8 sec) 
Heartbeat CPU  0 instructions:  501000001 cycles: 3940153755 heartbeat IPC: 0.10284 cumulative IPC: 0.10324 (Simulation time: 0 hr 39 min 13 sec) 
Heartbeat CPU  0 instructions:  502000000 cycles: 3949921758 heartbeat IPC: 0.10237 cumulative IPC: 0.10324 (Simulation time: 0 hr 39 min 18 sec) 
Heartbeat CPU  0 instructions:  503000000 cycles: 3959755952 heartbeat IPC: 0.10169 cumulative IPC: 0.10323 (Simulation time: 0 hr 39 min 23 sec) 
Heartbeat CPU  0 instructions:  504000000 cycles: 3969568696 heartbeat IPC: 0.10191 cumulative IPC: 0.10323 (Simulation time: 0 hr 39 min 28 sec) 
Heartbeat CPU  0 instructions:  505000001 cycles: 3979392633 heartbeat IPC: 0.10179 cumulative IPC: 0.10322 (Simulation time: 0 hr 39 min 33 sec) 
Heartbeat CPU  0 instructions:  506000003 cycles: 3989227024 heartbeat IPC: 0.10168 cumulative IPC: 0.10322 (Simulation time: 0 hr 39 min 38 sec) 
Heartbeat CPU  0 instructions:  507000000 cycles: 3999044276 heartbeat IPC: 0.10186 cumulative IPC: 0.10322 (Simulation time: 0 hr 39 min 43 sec) 
Heartbeat CPU  0 instructions:  508000000 cycles: 4008843020 heartbeat IPC: 0.10205 cumulative IPC: 0.10321 (Simulation time: 0 hr 39 min 48 sec) 
Heartbeat CPU  0 instructions:  509000001 cycles: 4018607940 heartbeat IPC: 0.10241 cumulative IPC: 0.10321 (Simulation time: 0 hr 39 min 53 sec) 
Heartbeat CPU  0 instructions:  510000000 cycles: 4028409899 heartbeat IPC: 0.10202 cumulative IPC: 0.10321 (Simulation time: 0 hr 39 min 58 sec) 
Heartbeat CPU  0 instructions:  511000000 cycles: 4038193019 heartbeat IPC: 0.10222 cumulative IPC: 0.10321 (Simulation time: 0 hr 40 min 3 sec) 
Heartbeat CPU  0 instructions:  512000000 cycles: 4047966938 heartbeat IPC: 0.10231 cumulative IPC: 0.10321 (Simulation time: 0 hr 40 min 8 sec) 
Heartbeat CPU  0 instructions:  513000000 cycles: 4057789629 heartbeat IPC: 0.10181 cumulative IPC: 0.10320 (Simulation time: 0 hr 40 min 13 sec) 
Heartbeat CPU  0 instructions:  514000002 cycles: 4067624565 heartbeat IPC: 0.10168 cumulative IPC: 0.10320 (Simulation time: 0 hr 40 min 18 sec) 
Heartbeat CPU  0 instructions:  515000002 cycles: 4076506736 heartbeat IPC: 0.11259 cumulative IPC: 0.10322 (Simulation time: 0 hr 40 min 23 sec) 
Heartbeat CPU  0 instructions:  516000000 cycles: 4085741133 heartbeat IPC: 0.10829 cumulative IPC: 0.10323 (Simulation time: 0 hr 40 min 28 sec) 
Heartbeat CPU  0 instructions:  517000000 cycles: 4095474790 heartbeat IPC: 0.10274 cumulative IPC: 0.10323 (Simulation time: 0 hr 40 min 33 sec) 
Heartbeat CPU  0 instructions:  518000000 cycles: 4105227437 heartbeat IPC: 0.10254 cumulative IPC: 0.10323 (Simulation time: 0 hr 40 min 38 sec) 
Heartbeat CPU  0 instructions:  519000000 cycles: 4114956523 heartbeat IPC: 0.10278 cumulative IPC: 0.10323 (Simulation time: 0 hr 40 min 43 sec) 
Heartbeat CPU  0 instructions:  520000000 cycles: 4124013232 heartbeat IPC: 0.11042 cumulative IPC: 0.10324 (Simulation time: 0 hr 40 min 48 sec) 
Heartbeat CPU  0 instructions:  521000000 cycles: 4132597475 heartbeat IPC: 0.11649 cumulative IPC: 0.10327 (Simulation time: 0 hr 40 min 52 sec) 
Heartbeat CPU  0 instructions:  522000000 cycles: 4142345731 heartbeat IPC: 0.10258 cumulative IPC: 0.10327 (Simulation time: 0 hr 40 min 57 sec) 
Heartbeat CPU  0 instructions:  523000000 cycles: 4152103281 heartbeat IPC: 0.10248 cumulative IPC: 0.10327 (Simulation time: 0 hr 41 min 2 sec) 
Heartbeat CPU  0 instructions:  524000000 cycles: 4161847801 heartbeat IPC: 0.10262 cumulative IPC: 0.10327 (Simulation time: 0 hr 41 min 7 sec) 
Heartbeat CPU  0 instructions:  525000000 cycles: 4171613110 heartbeat IPC: 0.10240 cumulative IPC: 0.10326 (Simulation time: 0 hr 41 min 12 sec) 
Heartbeat CPU  0 instructions:  526000000 cycles: 4181366587 heartbeat IPC: 0.10253 cumulative IPC: 0.10326 (Simulation time: 0 hr 41 min 17 sec) 
Heartbeat CPU  0 instructions:  527000001 cycles: 4191150742 heartbeat IPC: 0.10221 cumulative IPC: 0.10326 (Simulation time: 0 hr 41 min 22 sec) 
Heartbeat CPU  0 instructions:  528000000 cycles: 4200922484 heartbeat IPC: 0.10234 cumulative IPC: 0.10326 (Simulation time: 0 hr 41 min 28 sec) 
Heartbeat CPU  0 instructions:  529000000 cycles: 4210665349 heartbeat IPC: 0.10264 cumulative IPC: 0.10326 (Simulation time: 0 hr 41 min 33 sec) 
Heartbeat CPU  0 instructions:  530000000 cycles: 4220420382 heartbeat IPC: 0.10251 cumulative IPC: 0.10325 (Simulation time: 0 hr 41 min 38 sec) 
Heartbeat CPU  0 instructions:  531000000 cycles: 4230164896 heartbeat IPC: 0.10262 cumulative IPC: 0.10325 (Simulation time: 0 hr 41 min 43 sec) 
Heartbeat CPU  0 instructions:  532000000 cycles: 4239927741 heartbeat IPC: 0.10243 cumulative IPC: 0.10325 (Simulation time: 0 hr 41 min 48 sec) 
Heartbeat CPU  0 instructions:  533000000 cycles: 4249696297 heartbeat IPC: 0.10237 cumulative IPC: 0.10325 (Simulation time: 0 hr 41 min 53 sec) 
Heartbeat CPU  0 instructions:  534000000 cycles: 4259417460 heartbeat IPC: 0.10287 cumulative IPC: 0.10325 (Simulation time: 0 hr 41 min 58 sec) 
Heartbeat CPU  0 instructions:  535000000 cycles: 4269179385 heartbeat IPC: 0.10244 cumulative IPC: 0.10325 (Simulation time: 0 hr 42 min 3 sec) 
Heartbeat CPU  0 instructions:  536000000 cycles: 4278937779 heartbeat IPC: 0.10248 cumulative IPC: 0.10324 (Simulation time: 0 hr 42 min 8 sec) 
Heartbeat CPU  0 instructions:  537000001 cycles: 4288702745 heartbeat IPC: 0.10241 cumulative IPC: 0.10324 (Simulation time: 0 hr 42 min 13 sec) 
Heartbeat CPU  0 instructions:  538000000 cycles: 4298421710 heartbeat IPC: 0.10289 cumulative IPC: 0.10324 (Simulation time: 0 hr 42 min 18 sec) 
Heartbeat CPU  0 instructions:  539000003 cycles: 4308225165 heartbeat IPC: 0.10201 cumulative IPC: 0.10324 (Simulation time: 0 hr 42 min 23 sec) 
Heartbeat CPU  0 instructions:  540000000 cycles: 4318025846 heartbeat IPC: 0.10203 cumulative IPC: 0.10324 (Simulation time: 0 hr 42 min 28 sec) 
Heartbeat CPU  0 instructions:  541000000 cycles: 4327846195 heartbeat IPC: 0.10183 cumulative IPC: 0.10323 (Simulation time: 0 hr 42 min 33 sec) 
Heartbeat CPU  0 instructions:  542000001 cycles: 4337666871 heartbeat IPC: 0.10183 cumulative IPC: 0.10323 (Simulation time: 0 hr 42 min 38 sec) 
Heartbeat CPU  0 instructions:  543000000 cycles: 4347502982 heartbeat IPC: 0.10167 cumulative IPC: 0.10323 (Simulation time: 0 hr 42 min 43 sec) 
Heartbeat CPU  0 instructions:  544000000 cycles: 4357346360 heartbeat IPC: 0.10159 cumulative IPC: 0.10322 (Simulation time: 0 hr 42 min 48 sec) 
Heartbeat CPU  0 instructions:  545000000 cycles: 4367097866 heartbeat IPC: 0.10255 cumulative IPC: 0.10322 (Simulation time: 0 hr 42 min 53 sec) 
Heartbeat CPU  0 instructions:  546000002 cycles: 4376882212 heartbeat IPC: 0.10220 cumulative IPC: 0.10322 (Simulation time: 0 hr 42 min 58 sec) 
Heartbeat CPU  0 instructions:  547000000 cycles: 4386676454 heartbeat IPC: 0.10210 cumulative IPC: 0.10322 (Simulation time: 0 hr 43 min 3 sec) 
Heartbeat CPU  0 instructions:  548000000 cycles: 4396444142 heartbeat IPC: 0.10238 cumulative IPC: 0.10321 (Simulation time: 0 hr 43 min 8 sec) 
Heartbeat CPU  0 instructions:  549000000 cycles: 4406266167 heartbeat IPC: 0.10181 cumulative IPC: 0.10321 (Simulation time: 0 hr 43 min 13 sec) 
Heartbeat CPU  0 instructions:  550000000 cycles: 4416100963 heartbeat IPC: 0.10168 cumulative IPC: 0.10321 (Simulation time: 0 hr 43 min 18 sec) 
Heartbeat CPU  0 instructions:  551000000 cycles: 4425935090 heartbeat IPC: 0.10169 cumulative IPC: 0.10320 (Simulation time: 0 hr 43 min 23 sec) 
Heartbeat CPU  0 instructions:  552000000 cycles: 4434252018 heartbeat IPC: 0.12024 cumulative IPC: 0.10324 (Simulation time: 0 hr 43 min 28 sec) 
Heartbeat CPU  0 instructions:  553000001 cycles: 4444018418 heartbeat IPC: 0.10239 cumulative IPC: 0.10323 (Simulation time: 0 hr 43 min 33 sec) 
Heartbeat CPU  0 instructions:  554000002 cycles: 4453765720 heartbeat IPC: 0.10259 cumulative IPC: 0.10323 (Simulation time: 0 hr 43 min 38 sec) 
Heartbeat CPU  0 instructions:  555000000 cycles: 4463481200 heartbeat IPC: 0.10293 cumulative IPC: 0.10323 (Simulation time: 0 hr 43 min 43 sec) 
Heartbeat CPU  0 instructions:  556000000 cycles: 4473203963 heartbeat IPC: 0.10285 cumulative IPC: 0.10323 (Simulation time: 0 hr 43 min 48 sec) 
Heartbeat CPU  0 instructions:  557000003 cycles: 4480135223 heartbeat IPC: 0.14427 cumulative IPC: 0.10329 (Simulation time: 0 hr 43 min 52 sec) 
Heartbeat CPU  0 instructions:  558000003 cycles: 4483922597 heartbeat IPC: 0.26404 cumulative IPC: 0.10343 (Simulation time: 0 hr 43 min 55 sec) 
Heartbeat CPU  0 instructions:  559000000 cycles: 4487674978 heartbeat IPC: 0.26650 cumulative IPC: 0.10357 (Simulation time: 0 hr 43 min 57 sec) 
Heartbeat CPU  0 instructions:  560000000 cycles: 4493502502 heartbeat IPC: 0.17160 cumulative IPC: 0.10366 (Simulation time: 0 hr 44 min 0 sec) 
Heartbeat CPU  0 instructions:  561000000 cycles: 4503258211 heartbeat IPC: 0.10250 cumulative IPC: 0.10366 (Simulation time: 0 hr 44 min 5 sec) 
Heartbeat CPU  0 instructions:  562000000 cycles: 4513004127 heartbeat IPC: 0.10261 cumulative IPC: 0.10366 (Simulation time: 0 hr 44 min 10 sec) 
Heartbeat CPU  0 instructions:  563000001 cycles: 4522748628 heartbeat IPC: 0.10262 cumulative IPC: 0.10365 (Simulation time: 0 hr 44 min 15 sec) 
Heartbeat CPU  0 instructions:  564000000 cycles: 4532512613 heartbeat IPC: 0.10242 cumulative IPC: 0.10365 (Simulation time: 0 hr 44 min 20 sec) 
Heartbeat CPU  0 instructions:  565000001 cycles: 4542287085 heartbeat IPC: 0.10231 cumulative IPC: 0.10365 (Simulation time: 0 hr 44 min 26 sec) 
Heartbeat CPU  0 instructions:  566000002 cycles: 4552063771 heartbeat IPC: 0.10228 cumulative IPC: 0.10364 (Simulation time: 0 hr 44 min 31 sec) 
Heartbeat CPU  0 instructions:  567000000 cycles: 4561875094 heartbeat IPC: 0.10192 cumulative IPC: 0.10364 (Simulation time: 0 hr 44 min 36 sec) 
Heartbeat CPU  0 instructions:  568000000 cycles: 4571634043 heartbeat IPC: 0.10247 cumulative IPC: 0.10364 (Simulation time: 0 hr 44 min 41 sec) 
Heartbeat CPU  0 instructions:  569000000 cycles: 4581382776 heartbeat IPC: 0.10258 cumulative IPC: 0.10364 (Simulation time: 0 hr 44 min 46 sec) 
Heartbeat CPU  0 instructions:  570000000 cycles: 4591143792 heartbeat IPC: 0.10245 cumulative IPC: 0.10363 (Simulation time: 0 hr 44 min 51 sec) 
Heartbeat CPU  0 instructions:  571000001 cycles: 4600901196 heartbeat IPC: 0.10249 cumulative IPC: 0.10363 (Simulation time: 0 hr 44 min 56 sec) 
Heartbeat CPU  0 instructions:  572000000 cycles: 4610730348 heartbeat IPC: 0.10174 cumulative IPC: 0.10363 (Simulation time: 0 hr 45 min 1 sec) 
Heartbeat CPU  0 instructions:  573000003 cycles: 4620452466 heartbeat IPC: 0.10286 cumulative IPC: 0.10362 (Simulation time: 0 hr 45 min 6 sec) 
Heartbeat CPU  0 instructions:  574000000 cycles: 4630191156 heartbeat IPC: 0.10268 cumulative IPC: 0.10362 (Simulation time: 0 hr 45 min 11 sec) 
Heartbeat CPU  0 instructions:  575000003 cycles: 4639973581 heartbeat IPC: 0.10222 cumulative IPC: 0.10362 (Simulation time: 0 hr 45 min 16 sec) 
Heartbeat CPU  0 instructions:  576000000 cycles: 4649746839 heartbeat IPC: 0.10232 cumulative IPC: 0.10362 (Simulation time: 0 hr 45 min 21 sec) 
Heartbeat CPU  0 instructions:  577000000 cycles: 4659494437 heartbeat IPC: 0.10259 cumulative IPC: 0.10361 (Simulation time: 0 hr 45 min 26 sec) 
Heartbeat CPU  0 instructions:  578000000 cycles: 4669246779 heartbeat IPC: 0.10254 cumulative IPC: 0.10361 (Simulation time: 0 hr 45 min 31 sec) 
Heartbeat CPU  0 instructions:  579000000 cycles: 4679106916 heartbeat IPC: 0.10142 cumulative IPC: 0.10361 (Simulation time: 0 hr 45 min 36 sec) 
Heartbeat CPU  0 instructions:  580000000 cycles: 4688915173 heartbeat IPC: 0.10195 cumulative IPC: 0.10360 (Simulation time: 0 hr 45 min 41 sec) 
Heartbeat CPU  0 instructions:  581000001 cycles: 4698745869 heartbeat IPC: 0.10172 cumulative IPC: 0.10360 (Simulation time: 0 hr 45 min 46 sec) 
Heartbeat CPU  0 instructions:  582000001 cycles: 4708592541 heartbeat IPC: 0.10156 cumulative IPC: 0.10360 (Simulation time: 0 hr 45 min 51 sec) 
Heartbeat CPU  0 instructions:  583000000 cycles: 4718419491 heartbeat IPC: 0.10176 cumulative IPC: 0.10359 (Simulation time: 0 hr 45 min 56 sec) 
Heartbeat CPU  0 instructions:  584000000 cycles: 4728234228 heartbeat IPC: 0.10189 cumulative IPC: 0.10359 (Simulation time: 0 hr 46 min 1 sec) 
Heartbeat CPU  0 instructions:  585000000 cycles: 4738002728 heartbeat IPC: 0.10237 cumulative IPC: 0.10359 (Simulation time: 0 hr 46 min 6 sec) 
Heartbeat CPU  0 instructions:  586000002 cycles: 4747814530 heartbeat IPC: 0.10192 cumulative IPC: 0.10358 (Simulation time: 0 hr 46 min 11 sec) 
Heartbeat CPU  0 instructions:  587000001 cycles: 4757606715 heartbeat IPC: 0.10212 cumulative IPC: 0.10358 (Simulation time: 0 hr 46 min 16 sec) 
Heartbeat CPU  0 instructions:  588000000 cycles: 4767394674 heartbeat IPC: 0.10217 cumulative IPC: 0.10358 (Simulation time: 0 hr 46 min 21 sec) 
Heartbeat CPU  0 instructions:  589000000 cycles: 4777231922 heartbeat IPC: 0.10165 cumulative IPC: 0.10357 (Simulation time: 0 hr 46 min 26 sec) 
Heartbeat CPU  0 instructions:  590000001 cycles: 4787070579 heartbeat IPC: 0.10164 cumulative IPC: 0.10357 (Simulation time: 0 hr 46 min 32 sec) 
Heartbeat CPU  0 instructions:  591000000 cycles: 4796587676 heartbeat IPC: 0.10507 cumulative IPC: 0.10357 (Simulation time: 0 hr 46 min 37 sec) 
Heartbeat CPU  0 instructions:  592000000 cycles: 4805563764 heartbeat IPC: 0.11141 cumulative IPC: 0.10359 (Simulation time: 0 hr 46 min 41 sec) 
Heartbeat CPU  0 instructions:  593000000 cycles: 4815318778 heartbeat IPC: 0.10251 cumulative IPC: 0.10358 (Simulation time: 0 hr 46 min 46 sec) 
Heartbeat CPU  0 instructions:  594000000 cycles: 4825079395 heartbeat IPC: 0.10245 cumulative IPC: 0.10358 (Simulation time: 0 hr 46 min 51 sec) 
Heartbeat CPU  0 instructions:  595000001 cycles: 4834787604 heartbeat IPC: 0.10301 cumulative IPC: 0.10358 (Simulation time: 0 hr 46 min 56 sec) 
Heartbeat CPU  0 instructions:  596000000 cycles: 4844287659 heartbeat IPC: 0.10526 cumulative IPC: 0.10358 (Simulation time: 0 hr 47 min 2 sec) 
Heartbeat CPU  0 instructions:  597000001 cycles: 4853546307 heartbeat IPC: 0.10801 cumulative IPC: 0.10359 (Simulation time: 0 hr 47 min 7 sec) 
Heartbeat CPU  0 instructions:  598000000 cycles: 4863302830 heartbeat IPC: 0.10250 cumulative IPC: 0.10359 (Simulation time: 0 hr 47 min 12 sec) 
Heartbeat CPU  0 instructions:  599000003 cycles: 4873044766 heartbeat IPC: 0.10265 cumulative IPC: 0.10359 (Simulation time: 0 hr 47 min 17 sec) 
Heartbeat CPU  0 instructions:  600000000 cycles: 4882798027 heartbeat IPC: 0.10253 cumulative IPC: 0.10359 (Simulation time: 0 hr 47 min 22 sec) 
Finished CPU 0 instructions: 500000000 cycles: 4826885722 cumulative IPC: 0.10359 (Simulation time: 0 hr 47 min 22 sec) 

ChampSim completed all CPUs

[ROI Statistics]
Core_0_instructions 500000000
Core_0_cycles 4826885722
Core_0_IPC 0.10359

Core_0_branch_prediction_accuracy 99.53911
Core_0_branch_MPKI 1.62160
Core_0_average_ROB_occupancy_at_mispredict 196.75468

Core_0_L1D_total_access 79602825
Core_0_L1D_total_hit 43624256
Core_0_L1D_total_miss 35978569
Core_0_L1D_loads 71904125
Core_0_L1D_load_hit 35945956
Core_0_L1D_load_miss 35958169
Core_0_L1D_RFOs 7698700
Core_0_L1D_RFO_hit 7678300
Core_0_L1D_RFO_miss 20400
Core_0_L1D_prefetches 0
Core_0_L1D_prefetch_hit 0
Core_0_L1D_prefetch_miss 0
Core_0_L1D_writebacks 0
Core_0_L1D_writeback_hit 0
Core_0_L1D_writeback_miss 0
Core_0_L1D_prefetch_requested 0
Core_0_L1D_prefetch_issued 0
Core_0_L1D_prefetch_useful 0
Core_0_L1D_prefetch_useless 0
Core_0_L1D_prefetch_late 0
Core_0_L1D_average_miss_latency 115.45066

Core_0_L1I_total_access 177917907
Core_0_L1I_total_hit 177917818
Core_0_L1I_total_miss 89
Core_0_L1I_loads 177917907
Core_0_L1I_load_hit 177917818
Core_0_L1I_load_miss 89
Core_0_L1I_RFOs 0
Core_0_L1I_RFO_hit 0
Core_0_L1I_RFO_miss 0
Core_0_L1I_prefetches 0
Core_0_L1I_prefetch_hit 0
Core_0_L1I_prefetch_miss 0
Core_0_L1I_writebacks 0
Core_0_L1I_writeback_hit 0
Core_0_L1I_writeback_miss 0
Core_0_L1I_prefetch_requested 0
Core_0_L1I_prefetch_issued 0
Core_0_L1I_prefetch_useful 0
Core_0_L1I_prefetch_useless 0
Core_0_L1I_prefetch_late 0
Core_0_L1I_average_miss_latency 131.77528

Core_0_L2C_total_access 36112081
Core_0_L2C_total_hit 1364889
Core_0_L2C_total_miss 34747192
Core_0_L2C_loads 35958258
Core_0_L2C_load_hit 1228267
Core_0_L2C_load_miss 34729991
Core_0_L2C_RFOs 20400
Core_0_L2C_RFO_hit 3380
Core_0_L2C_RFO_miss 17020
Core_0_L2C_prefetches 198
Core_0_L2C_prefetch_hit 38
Core_0_L2C_prefetch_miss 160
Core_0_L2C_writebacks 133225
Core_0_L2C_writeback_hit 133204
Core_0_L2C_writeback_miss 21
Core_0_L2C_prefetch_requested 360
Core_0_L2C_prefetch_issued 353
Core_0_L2C_prefetch_useful 94
Core_0_L2C_prefetch_useless 149
Core_0_L2C_prefetch_late 10
Core_0_L2C_average_miss_latency 105.03509

Core_0_LLC_total_access 34806970
Core_0_LLC_total_hit 451047
Core_0_LLC_total_miss 34355923
Core_0_LLC_loads 34729982
Core_0_LLC_load_hit 381081
Core_0_LLC_load_miss 34348901
Core_0_LLC_RFOs 17020
Core_0_LLC_RFO_hit 14894
Core_0_LLC_RFO_miss 2126
Core_0_LLC_prefetches 169
Core_0_LLC_prefetch_hit 13
Core_0_LLC_prefetch_miss 156
Core_0_LLC_writebacks 59799
Core_0_LLC_writeback_hit 55059
Core_0_LLC_writeback_miss 4740
Core_0_LLC_prefetch_requested 0
Core_0_LLC_prefetch_issued 0
Core_0_LLC_prefetch_useful 15
Core_0_LLC_prefetch_useless 202
Core_0_LLC_prefetch_late 0
Core_0_LLC_average_miss_latency 75.88359

Core_0_major_page_fault 0
Core_0_minor_page_fault 54920

Channel_0_RQ_row_buffer_hit 32714856
Channel_0_RQ_row_buffer_miss 1636327
Channel_0_WQ_row_buffer_hit 700
Channel_0_WQ_row_buffer_miss 3424
Channel_0_WQ_full 0
Channel_0_dbus_congested 167801

avg_congested_cycle 11
