*************************************************
   ChampSim Multicore Out-of-Order Simulator
   Last compiled: Jan 20 2021 13:20:27
*************************************************

trace_0 traces/482.sphinx3-1100B.champsimtrace.xz
CPU 0 L2C IP-delta,IP stride,NL prefetcher
Initialize SHIP state
warmup_instructions 100000000
simulation_instructions 500000000
champsim_seed 260

num_cpus 1
cpu_freq 4000
dram_io_freq 2400
page_size 4096
block_size 64
max_read_per_cycle 8
max_fill_per_cycle 1
dram_channels 1
dram_ranks 1
dram_banks 8
dram_rows 65536
dram_columns 128
dram_row_size 8
dram_size 4096
dram_pages 1048576

fetch_width 6
decode_width 6
exec_width 4
lq_width 2
sq_width 2
retire_width 4
scheduler_size 128
branch_mispredict_penalty 20
rob_size 256
lq_size 72
sq_size 56
num_instr_destinations_sparc 4
num_instr_destinations 2
num_instr_sources 4

itlb_set 16
itlb_way 8
itlb_rq_size 16
itlb_wq_size 16
itlb_pq_size 0
itlb_mshr_size 8
itlb_latency 1

dtlb_set 16
dtlb_way 4
dtlb_rq_size 16
dtlb_wq_size 16
dtlb_pq_size 0
dtlb_mshr_size 8
dtlb_latency 1

stlb_set 128
stlb_way 12
stlb_rq_size 32
stlb_wq_size 32
stlb_pq_size 0
stlb_mshr_size 16
stlb_latency 8

l1i_size 32
l1i_set 64
l1i_way 8
l1i_rq_size 64
l1i_wq_size 64
l1i_pq_size 8
l1i_mshr_size 8
l1i_latency 1

l1d_size 32
l1d_set 64
l1d_way 8
l1d_rq_size 64
l1d_wq_size 64
l1d_pq_size 8
l1d_mshr_size 16
l1d_latency 4

l2c_size 512
l2c_set 1024
l2c_way 8
l2c_rq_size 32
l2c_wq_size 32
l2c_pq_size 16
l2c_mshr_size 32
l2c_latency 10

llc_size 2048
llc_set 2048
llc_way 16
llc_rq_size 32
llc_wq_size 32
llc_pq_size 32
llc_mshr_size 64
llc_latency 20

dram_channel_width 8
dram_wq_size 64
dram_rq_size 64
tRP 15
tRCD 15
tCAS 12.5
dram_dbus_turn_around_time 30
dram_write_high_wm 56
dram_write_low_wm 48
min_dram_writes_per_switch 16
dram_mtps 2400
dram_dbus_return_time 13


Heartbeat CPU  0 instructions:    1000001 cycles:     367690 heartbeat IPC: 2.71969 cumulative IPC: 2.71969 (Simulation time: 0 hr 0 min 1 sec) 
Heartbeat CPU  0 instructions:    2000003 cycles:     795076 heartbeat IPC: 2.33981 cumulative IPC: 2.51549 (Simulation time: 0 hr 0 min 3 sec) 
Heartbeat CPU  0 instructions:    3000001 cycles:    1253000 heartbeat IPC: 2.18376 cumulative IPC: 2.39425 (Simulation time: 0 hr 0 min 5 sec) 
Heartbeat CPU  0 instructions:    4000000 cycles:    1735762 heartbeat IPC: 2.07141 cumulative IPC: 2.30446 (Simulation time: 0 hr 0 min 6 sec) 
Heartbeat CPU  0 instructions:    5000000 cycles:    2178416 heartbeat IPC: 2.25910 cumulative IPC: 2.29525 (Simulation time: 0 hr 0 min 8 sec) 
Heartbeat CPU  0 instructions:    6000001 cycles:    2545749 heartbeat IPC: 2.72233 cumulative IPC: 2.35687 (Simulation time: 0 hr 0 min 9 sec) 
Heartbeat CPU  0 instructions:    7000000 cycles:    2936764 heartbeat IPC: 2.55744 cumulative IPC: 2.38358 (Simulation time: 0 hr 0 min 11 sec) 
Heartbeat CPU  0 instructions:    8000000 cycles:    3395353 heartbeat IPC: 2.18060 cumulative IPC: 2.35616 (Simulation time: 0 hr 0 min 13 sec) 
Heartbeat CPU  0 instructions:    9000000 cycles:    3853370 heartbeat IPC: 2.18333 cumulative IPC: 2.33562 (Simulation time: 0 hr 0 min 14 sec) 
Heartbeat CPU  0 instructions:   10000000 cycles:    4343569 heartbeat IPC: 2.03999 cumulative IPC: 2.30225 (Simulation time: 0 hr 0 min 16 sec) 
Heartbeat CPU  0 instructions:   11000001 cycles:    4715845 heartbeat IPC: 2.68618 cumulative IPC: 2.33256 (Simulation time: 0 hr 0 min 18 sec) 
Heartbeat CPU  0 instructions:   12000000 cycles:    5082999 heartbeat IPC: 2.72365 cumulative IPC: 2.36081 (Simulation time: 0 hr 0 min 19 sec) 
Heartbeat CPU  0 instructions:   13000001 cycles:    5532260 heartbeat IPC: 2.22588 cumulative IPC: 2.34985 (Simulation time: 0 hr 0 min 21 sec) 
Heartbeat CPU  0 instructions:   14000000 cycles:    5990295 heartbeat IPC: 2.18324 cumulative IPC: 2.33711 (Simulation time: 0 hr 0 min 22 sec) 
Heartbeat CPU  0 instructions:   15000000 cycles:    6472630 heartbeat IPC: 2.07325 cumulative IPC: 2.31745 (Simulation time: 0 hr 0 min 24 sec) 
Heartbeat CPU  0 instructions:   16000000 cycles:    6882634 heartbeat IPC: 2.43900 cumulative IPC: 2.32469 (Simulation time: 0 hr 0 min 26 sec) 
Heartbeat CPU  0 instructions:   17000003 cycles:    7249868 heartbeat IPC: 2.72307 cumulative IPC: 2.34487 (Simulation time: 0 hr 0 min 27 sec) 
Heartbeat CPU  0 instructions:   18000003 cycles:    7661870 heartbeat IPC: 2.42717 cumulative IPC: 2.34930 (Simulation time: 0 hr 0 min 29 sec) 
Heartbeat CPU  0 instructions:   19000003 cycles:    8119846 heartbeat IPC: 2.18352 cumulative IPC: 2.33995 (Simulation time: 0 hr 0 min 31 sec) 
Heartbeat CPU  0 instructions:   20000000 cycles:    8588259 heartbeat IPC: 2.13486 cumulative IPC: 2.32876 (Simulation time: 0 hr 0 min 32 sec) 
Heartbeat CPU  0 instructions:   21000002 cycles:    9047270 heartbeat IPC: 2.17860 cumulative IPC: 2.32114 (Simulation time: 0 hr 0 min 34 sec) 
Heartbeat CPU  0 instructions:   22000003 cycles:    9414483 heartbeat IPC: 2.72322 cumulative IPC: 2.33683 (Simulation time: 0 hr 0 min 35 sec) 
Heartbeat CPU  0 instructions:   23000001 cycles:    9795072 heartbeat IPC: 2.62750 cumulative IPC: 2.34812 (Simulation time: 0 hr 0 min 37 sec) 
Heartbeat CPU  0 instructions:   24000000 cycles:   10250497 heartbeat IPC: 2.19575 cumulative IPC: 2.34135 (Simulation time: 0 hr 0 min 39 sec) 
Heartbeat CPU  0 instructions:   25000002 cycles:   10705945 heartbeat IPC: 2.19564 cumulative IPC: 2.33515 (Simulation time: 0 hr 0 min 40 sec) 
Heartbeat CPU  0 instructions:   26000002 cycles:   11184615 heartbeat IPC: 2.08912 cumulative IPC: 2.32462 (Simulation time: 0 hr 0 min 42 sec) 
Heartbeat CPU  0 instructions:   27000001 cycles:   11577800 heartbeat IPC: 2.54333 cumulative IPC: 2.33205 (Simulation time: 0 hr 0 min 43 sec) 
Heartbeat CPU  0 instructions:   28000000 cycles:   11944762 heartbeat IPC: 2.72508 cumulative IPC: 2.34412 (Simulation time: 0 hr 0 min 45 sec) 
Heartbeat CPU  0 instructions:   29000001 cycles:   12381122 heartbeat IPC: 2.29169 cumulative IPC: 2.34228 (Simulation time: 0 hr 0 min 47 sec) 
Heartbeat CPU  0 instructions:   30000003 cycles:   12834729 heartbeat IPC: 2.20456 cumulative IPC: 2.33741 (Simulation time: 0 hr 0 min 48 sec) 
Heartbeat CPU  0 instructions:   31000002 cycles:   13288782 heartbeat IPC: 2.20238 cumulative IPC: 2.33279 (Simulation time: 0 hr 0 min 50 sec) 
Heartbeat CPU  0 instructions:   32000000 cycles:   13771883 heartbeat IPC: 2.06996 cumulative IPC: 2.32357 (Simulation time: 0 hr 0 min 52 sec) 
Heartbeat CPU  0 instructions:   33000003 cycles:   14173042 heartbeat IPC: 2.49278 cumulative IPC: 2.32836 (Simulation time: 0 hr 0 min 53 sec) 
Heartbeat CPU  0 instructions:   34000003 cycles:   14540009 heartbeat IPC: 2.72504 cumulative IPC: 2.33838 (Simulation time: 0 hr 0 min 55 sec) 
Heartbeat CPU  0 instructions:   35000000 cycles:   14967222 heartbeat IPC: 2.34075 cumulative IPC: 2.33844 (Simulation time: 0 hr 0 min 57 sec) 
Heartbeat CPU  0 instructions:   36000000 cycles:   15421063 heartbeat IPC: 2.20341 cumulative IPC: 2.33447 (Simulation time: 0 hr 0 min 58 sec) 
Heartbeat CPU  0 instructions:   37000000 cycles:   15875159 heartbeat IPC: 2.20218 cumulative IPC: 2.33069 (Simulation time: 0 hr 1 min 0 sec) 
Heartbeat CPU  0 instructions:   38000003 cycles:   16362891 heartbeat IPC: 2.05031 cumulative IPC: 2.32233 (Simulation time: 0 hr 1 min 1 sec) 
Heartbeat CPU  0 instructions:   39000001 cycles:   16770356 heartbeat IPC: 2.45419 cumulative IPC: 2.32553 (Simulation time: 0 hr 1 min 3 sec) 
Heartbeat CPU  0 instructions:   40000000 cycles:   17137456 heartbeat IPC: 2.72405 cumulative IPC: 2.33407 (Simulation time: 0 hr 1 min 5 sec) 
Heartbeat CPU  0 instructions:   41000003 cycles:   17557706 heartbeat IPC: 2.37954 cumulative IPC: 2.33516 (Simulation time: 0 hr 1 min 6 sec) 
Heartbeat CPU  0 instructions:   42000000 cycles:   18015767 heartbeat IPC: 2.18311 cumulative IPC: 2.33129 (Simulation time: 0 hr 1 min 8 sec) 
Heartbeat CPU  0 instructions:   43000001 cycles:   18472149 heartbeat IPC: 2.19115 cumulative IPC: 2.32783 (Simulation time: 0 hr 1 min 9 sec) 
Heartbeat CPU  0 instructions:   44000000 cycles:   18962370 heartbeat IPC: 2.03989 cumulative IPC: 2.32038 (Simulation time: 0 hr 1 min 11 sec) 
Heartbeat CPU  0 instructions:   45000002 cycles:   19374571 heartbeat IPC: 2.42601 cumulative IPC: 2.32263 (Simulation time: 0 hr 1 min 13 sec) 
Heartbeat CPU  0 instructions:   46000000 cycles:   19741788 heartbeat IPC: 2.72318 cumulative IPC: 2.33008 (Simulation time: 0 hr 1 min 14 sec) 
Heartbeat CPU  0 instructions:   47000002 cycles:   20155052 heartbeat IPC: 2.41977 cumulative IPC: 2.33192 (Simulation time: 0 hr 1 min 16 sec) 
Heartbeat CPU  0 instructions:   48000000 cycles:   20614816 heartbeat IPC: 2.17502 cumulative IPC: 2.32842 (Simulation time: 0 hr 1 min 18 sec) 
Heartbeat CPU  0 instructions:   49000003 cycles:   21071497 heartbeat IPC: 2.18972 cumulative IPC: 2.32542 (Simulation time: 0 hr 1 min 19 sec) 
Heartbeat CPU  0 instructions:   50000003 cycles:   21582121 heartbeat IPC: 1.95839 cumulative IPC: 2.31673 (Simulation time: 0 hr 1 min 21 sec) 
Heartbeat CPU  0 instructions:   51000002 cycles:   22044304 heartbeat IPC: 2.16364 cumulative IPC: 2.31352 (Simulation time: 0 hr 1 min 22 sec) 
Heartbeat CPU  0 instructions:   52000000 cycles:   22417494 heartbeat IPC: 2.67959 cumulative IPC: 2.31962 (Simulation time: 0 hr 1 min 24 sec) 
Heartbeat CPU  0 instructions:   53000001 cycles:   22784775 heartbeat IPC: 2.72271 cumulative IPC: 2.32611 (Simulation time: 0 hr 1 min 26 sec) 
Heartbeat CPU  0 instructions:   54000001 cycles:   23234396 heartbeat IPC: 2.22410 cumulative IPC: 2.32414 (Simulation time: 0 hr 1 min 27 sec) 
Heartbeat CPU  0 instructions:   55000001 cycles:   23687950 heartbeat IPC: 2.20481 cumulative IPC: 2.32186 (Simulation time: 0 hr 1 min 29 sec) 
Heartbeat CPU  0 instructions:   56000000 cycles:   24145029 heartbeat IPC: 2.18780 cumulative IPC: 2.31932 (Simulation time: 0 hr 1 min 31 sec) 
Heartbeat CPU  0 instructions:   57000003 cycles:   24630261 heartbeat IPC: 2.06088 cumulative IPC: 2.31423 (Simulation time: 0 hr 1 min 32 sec) 
Heartbeat CPU  0 instructions:   58000001 cycles:   25023768 heartbeat IPC: 2.54125 cumulative IPC: 2.31780 (Simulation time: 0 hr 1 min 34 sec) 
Heartbeat CPU  0 instructions:   59000001 cycles:   25390851 heartbeat IPC: 2.72418 cumulative IPC: 2.32367 (Simulation time: 0 hr 1 min 36 sec) 
Heartbeat CPU  0 instructions:   60000000 cycles:   25830333 heartbeat IPC: 2.27540 cumulative IPC: 2.32285 (Simulation time: 0 hr 1 min 37 sec) 
Heartbeat CPU  0 instructions:   61000000 cycles:   26286435 heartbeat IPC: 2.19249 cumulative IPC: 2.32059 (Simulation time: 0 hr 1 min 39 sec) 
Heartbeat CPU  0 instructions:   62000000 cycles:   26744072 heartbeat IPC: 2.18514 cumulative IPC: 2.31827 (Simulation time: 0 hr 1 min 40 sec) 
Heartbeat CPU  0 instructions:   63000000 cycles:   27231467 heartbeat IPC: 2.05172 cumulative IPC: 2.31350 (Simulation time: 0 hr 1 min 42 sec) 
Heartbeat CPU  0 instructions:   64000000 cycles:   27633503 heartbeat IPC: 2.48734 cumulative IPC: 2.31603 (Simulation time: 0 hr 1 min 44 sec) 
Heartbeat CPU  0 instructions:   65000000 cycles:   28000720 heartbeat IPC: 2.72319 cumulative IPC: 2.32137 (Simulation time: 0 hr 1 min 45 sec) 
Heartbeat CPU  0 instructions:   66000001 cycles:   28426013 heartbeat IPC: 2.35132 cumulative IPC: 2.32182 (Simulation time: 0 hr 1 min 47 sec) 
Heartbeat CPU  0 instructions:   67000003 cycles:   28885833 heartbeat IPC: 2.17477 cumulative IPC: 2.31948 (Simulation time: 0 hr 1 min 49 sec) 
Heartbeat CPU  0 instructions:   68000000 cycles:   29340004 heartbeat IPC: 2.20181 cumulative IPC: 2.31765 (Simulation time: 0 hr 1 min 50 sec) 
Heartbeat CPU  0 instructions:   69000001 cycles:   29827031 heartbeat IPC: 2.05328 cumulative IPC: 2.31334 (Simulation time: 0 hr 1 min 52 sec) 
Heartbeat CPU  0 instructions:   70000001 cycles:   30236188 heartbeat IPC: 2.44405 cumulative IPC: 2.31511 (Simulation time: 0 hr 1 min 53 sec) 
Heartbeat CPU  0 instructions:   71000001 cycles:   30603487 heartbeat IPC: 2.72258 cumulative IPC: 2.32000 (Simulation time: 0 hr 1 min 55 sec) 
Heartbeat CPU  0 instructions:   72000000 cycles:   31019242 heartbeat IPC: 2.40526 cumulative IPC: 2.32114 (Simulation time: 0 hr 1 min 57 sec) 
Heartbeat CPU  0 instructions:   73000000 cycles:   31476144 heartbeat IPC: 2.18865 cumulative IPC: 2.31922 (Simulation time: 0 hr 1 min 58 sec) 
Heartbeat CPU  0 instructions:   74000002 cycles:   31931737 heartbeat IPC: 2.19495 cumulative IPC: 2.31744 (Simulation time: 0 hr 2 min 0 sec) 
Heartbeat CPU  0 instructions:   75000002 cycles:   32420243 heartbeat IPC: 2.04706 cumulative IPC: 2.31337 (Simulation time: 0 hr 2 min 1 sec) 
Heartbeat CPU  0 instructions:   76000000 cycles:   32839012 heartbeat IPC: 2.38795 cumulative IPC: 2.31432 (Simulation time: 0 hr 2 min 3 sec) 
Heartbeat CPU  0 instructions:   77000003 cycles:   33206245 heartbeat IPC: 2.72307 cumulative IPC: 2.31884 (Simulation time: 0 hr 2 min 5 sec) 
Heartbeat CPU  0 instructions:   78000002 cycles:   33614574 heartbeat IPC: 2.44900 cumulative IPC: 2.32042 (Simulation time: 0 hr 2 min 6 sec) 
Heartbeat CPU  0 instructions:   79000000 cycles:   34069983 heartbeat IPC: 2.19582 cumulative IPC: 2.31876 (Simulation time: 0 hr 2 min 8 sec) 
Heartbeat CPU  0 instructions:   80000000 cycles:   34527008 heartbeat IPC: 2.18806 cumulative IPC: 2.31703 (Simulation time: 0 hr 2 min 10 sec) 
Heartbeat CPU  0 instructions:   81000001 cycles:   34986156 heartbeat IPC: 2.17795 cumulative IPC: 2.31520 (Simulation time: 0 hr 2 min 11 sec) 
Heartbeat CPU  0 instructions:   82000001 cycles:   35472919 heartbeat IPC: 2.05439 cumulative IPC: 2.31162 (Simulation time: 0 hr 2 min 13 sec) 
Heartbeat CPU  0 instructions:   83000001 cycles:   35844474 heartbeat IPC: 2.69139 cumulative IPC: 2.31556 (Simulation time: 0 hr 2 min 14 sec) 
Heartbeat CPU  0 instructions:   84000000 cycles:   36212591 heartbeat IPC: 2.71652 cumulative IPC: 2.31964 (Simulation time: 0 hr 2 min 16 sec) 
Heartbeat CPU  0 instructions:   85000003 cycles:   36668304 heartbeat IPC: 2.19437 cumulative IPC: 2.31808 (Simulation time: 0 hr 2 min 18 sec) 
Heartbeat CPU  0 instructions:   86000001 cycles:   37124027 heartbeat IPC: 2.19431 cumulative IPC: 2.31656 (Simulation time: 0 hr 2 min 19 sec) 
Heartbeat CPU  0 instructions:   87000003 cycles:   37581390 heartbeat IPC: 2.18645 cumulative IPC: 2.31498 (Simulation time: 0 hr 2 min 21 sec) 
Heartbeat CPU  0 instructions:   88000000 cycles:   38071018 heartbeat IPC: 2.04236 cumulative IPC: 2.31147 (Simulation time: 0 hr 2 min 22 sec) 
Heartbeat CPU  0 instructions:   89000002 cycles:   38474299 heartbeat IPC: 2.47967 cumulative IPC: 2.31323 (Simulation time: 0 hr 2 min 24 sec) 
Heartbeat CPU  0 instructions:   90000002 cycles:   38841639 heartbeat IPC: 2.72227 cumulative IPC: 2.31710 (Simulation time: 0 hr 2 min 26 sec) 
Heartbeat CPU  0 instructions:   91000002 cycles:   39262595 heartbeat IPC: 2.37555 cumulative IPC: 2.31773 (Simulation time: 0 hr 2 min 28 sec) 
Heartbeat CPU  0 instructions:   92000000 cycles:   39716213 heartbeat IPC: 2.20449 cumulative IPC: 2.31643 (Simulation time: 0 hr 2 min 29 sec) 
Heartbeat CPU  0 instructions:   93000002 cycles:   40172873 heartbeat IPC: 2.18982 cumulative IPC: 2.31500 (Simulation time: 0 hr 2 min 31 sec) 
Heartbeat CPU  0 instructions:   94000001 cycles:   40661341 heartbeat IPC: 2.04721 cumulative IPC: 2.31178 (Simulation time: 0 hr 2 min 32 sec) 
Heartbeat CPU  0 instructions:   95000003 cycles:   41033844 heartbeat IPC: 2.68455 cumulative IPC: 2.31516 (Simulation time: 0 hr 2 min 34 sec) 
Heartbeat CPU  0 instructions:   96000000 cycles:   41401054 heartbeat IPC: 2.72323 cumulative IPC: 2.31878 (Simulation time: 0 hr 2 min 36 sec) 
Heartbeat CPU  0 instructions:   97000001 cycles:   41847074 heartbeat IPC: 2.24205 cumulative IPC: 2.31796 (Simulation time: 0 hr 2 min 37 sec) 
Heartbeat CPU  0 instructions:   98000002 cycles:   42303710 heartbeat IPC: 2.18993 cumulative IPC: 2.31658 (Simulation time: 0 hr 2 min 39 sec) 
Heartbeat CPU  0 instructions:   99000003 cycles:   42789938 heartbeat IPC: 2.05665 cumulative IPC: 2.31363 (Simulation time: 0 hr 2 min 41 sec) 
Heartbeat CPU  0 instructions:  100000000 cycles:   43334117 heartbeat IPC: 1.83763 cumulative IPC: 2.30765 (Simulation time: 0 hr 2 min 42 sec) 

Warmup complete CPU  0 instructions:  100000001 cycles:   43334118 (Simulation time: 0 hr 2 min 42 sec) 

Heartbeat CPU  0 instructions:  101000001 cycles:   44164926 heartbeat IPC: 1.20365 cumulative IPC: 1.20365 (Simulation time: 0 hr 2 min 44 sec) 
Heartbeat CPU  0 instructions:  102000003 cycles:   44784409 heartbeat IPC: 1.61425 cumulative IPC: 1.37903 (Simulation time: 0 hr 2 min 46 sec) 
Heartbeat CPU  0 instructions:  103000000 cycles:   45539731 heartbeat IPC: 1.32393 cumulative IPC: 1.36017 (Simulation time: 0 hr 2 min 49 sec) 
Heartbeat CPU  0 instructions:  104000000 cycles:   46565425 heartbeat IPC: 0.97495 cumulative IPC: 1.23789 (Simulation time: 0 hr 2 min 51 sec) 
Heartbeat CPU  0 instructions:  105000000 cycles:   47534296 heartbeat IPC: 1.03213 cumulative IPC: 1.19043 (Simulation time: 0 hr 2 min 53 sec) 
Heartbeat CPU  0 instructions:  106000003 cycles:   48218858 heartbeat IPC: 1.46079 cumulative IPC: 1.22832 (Simulation time: 0 hr 2 min 55 sec) 
Heartbeat CPU  0 instructions:  107000003 cycles:   48818370 heartbeat IPC: 1.66802 cumulative IPC: 1.27638 (Simulation time: 0 hr 2 min 57 sec) 
Heartbeat CPU  0 instructions:  108000000 cycles:   49761459 heartbeat IPC: 1.06034 cumulative IPC: 1.24468 (Simulation time: 0 hr 2 min 59 sec) 
Heartbeat CPU  0 instructions:  109000000 cycles:   50774925 heartbeat IPC: 0.98671 cumulative IPC: 1.20955 (Simulation time: 0 hr 3 min 1 sec) 
Heartbeat CPU  0 instructions:  110000001 cycles:   51574647 heartbeat IPC: 1.25044 cumulative IPC: 1.21351 (Simulation time: 0 hr 3 min 3 sec) 
Heartbeat CPU  0 instructions:  111000000 cycles:   52173261 heartbeat IPC: 1.67052 cumulative IPC: 1.24446 (Simulation time: 0 hr 3 min 5 sec) 
Heartbeat CPU  0 instructions:  112000000 cycles:   52920048 heartbeat IPC: 1.33907 cumulative IPC: 1.25183 (Simulation time: 0 hr 3 min 7 sec) 
Heartbeat CPU  0 instructions:  113000003 cycles:   53902636 heartbeat IPC: 1.01772 cumulative IPC: 1.23007 (Simulation time: 0 hr 3 min 10 sec) 
Heartbeat CPU  0 instructions:  114000001 cycles:   54837359 heartbeat IPC: 1.06983 cumulative IPC: 1.21705 (Simulation time: 0 hr 3 min 12 sec) 
Heartbeat CPU  0 instructions:  115000000 cycles:   55703885 heartbeat IPC: 1.15403 cumulative IPC: 1.21263 (Simulation time: 0 hr 3 min 14 sec) 
Heartbeat CPU  0 instructions:  116000000 cycles:   56306379 heartbeat IPC: 1.65977 cumulative IPC: 1.23340 (Simulation time: 0 hr 3 min 16 sec) 
Heartbeat CPU  0 instructions:  117000000 cycles:   57287956 heartbeat IPC: 1.01877 cumulative IPC: 1.21830 (Simulation time: 0 hr 3 min 18 sec) 
Heartbeat CPU  0 instructions:  118000003 cycles:   58283708 heartbeat IPC: 1.00427 cumulative IPC: 1.20405 (Simulation time: 0 hr 3 min 20 sec) 
Heartbeat CPU  0 instructions:  119000002 cycles:   59315445 heartbeat IPC: 0.96924 cumulative IPC: 1.18889 (Simulation time: 0 hr 3 min 22 sec) 
Heartbeat CPU  0 instructions:  120000000 cycles:   60473020 heartbeat IPC: 0.86387 cumulative IPC: 1.16694 (Simulation time: 0 hr 3 min 24 sec) 
Heartbeat CPU  0 instructions:  121000000 cycles:   61306571 heartbeat IPC: 1.19969 cumulative IPC: 1.16845 (Simulation time: 0 hr 3 min 26 sec) 
Heartbeat CPU  0 instructions:  122000001 cycles:   61909670 heartbeat IPC: 1.65810 cumulative IPC: 1.18435 (Simulation time: 0 hr 3 min 29 sec) 
Heartbeat CPU  0 instructions:  123000001 cycles:   62678210 heartbeat IPC: 1.30117 cumulative IPC: 1.18899 (Simulation time: 0 hr 3 min 31 sec) 
Heartbeat CPU  0 instructions:  124000000 cycles:   63726586 heartbeat IPC: 0.95386 cumulative IPC: 1.17691 (Simulation time: 0 hr 3 min 33 sec) 
Heartbeat CPU  0 instructions:  125000001 cycles:   64737820 heartbeat IPC: 0.98889 cumulative IPC: 1.16802 (Simulation time: 0 hr 3 min 35 sec) 
Heartbeat CPU  0 instructions:  126000003 cycles:   65783450 heartbeat IPC: 0.95636 cumulative IPC: 1.15816 (Simulation time: 0 hr 3 min 37 sec) 
Heartbeat CPU  0 instructions:  127000000 cycles:   66744199 heartbeat IPC: 1.04085 cumulative IPC: 1.15335 (Simulation time: 0 hr 3 min 39 sec) 
Heartbeat CPU  0 instructions:  128000000 cycles:   67374487 heartbeat IPC: 1.58658 cumulative IPC: 1.16471 (Simulation time: 0 hr 3 min 41 sec) 
Heartbeat CPU  0 instructions:  129000000 cycles:   68018000 heartbeat IPC: 1.55397 cumulative IPC: 1.17486 (Simulation time: 0 hr 3 min 43 sec) 
Heartbeat CPU  0 instructions:  130000002 cycles:   69084923 heartbeat IPC: 0.93728 cumulative IPC: 1.16501 (Simulation time: 0 hr 3 min 45 sec) 
Heartbeat CPU  0 instructions:  131000002 cycles:   70093638 heartbeat IPC: 0.99136 cumulative IPC: 1.15847 (Simulation time: 0 hr 3 min 48 sec) 
Heartbeat CPU  0 instructions:  132000000 cycles:   71162270 heartbeat IPC: 0.93577 cumulative IPC: 1.14991 (Simulation time: 0 hr 3 min 50 sec) 
Heartbeat CPU  0 instructions:  133000000 cycles:   71929639 heartbeat IPC: 1.30315 cumulative IPC: 1.15403 (Simulation time: 0 hr 3 min 52 sec) 
Heartbeat CPU  0 instructions:  134000002 cycles:   72535750 heartbeat IPC: 1.64987 cumulative IPC: 1.16432 (Simulation time: 0 hr 3 min 54 sec) 
Heartbeat CPU  0 instructions:  135000001 cycles:   73373134 heartbeat IPC: 1.19419 cumulative IPC: 1.16515 (Simulation time: 0 hr 3 min 56 sec) 
Heartbeat CPU  0 instructions:  136000000 cycles:   74388261 heartbeat IPC: 0.98510 cumulative IPC: 1.15927 (Simulation time: 0 hr 3 min 58 sec) 
Heartbeat CPU  0 instructions:  137000002 cycles:   75412788 heartbeat IPC: 0.97606 cumulative IPC: 1.15341 (Simulation time: 0 hr 4 min 0 sec) 
Heartbeat CPU  0 instructions:  138000002 cycles:   76144634 heartbeat IPC: 1.36641 cumulative IPC: 1.15817 (Simulation time: 0 hr 4 min 2 sec) 
Heartbeat CPU  0 instructions:  139000002 cycles:   76749410 heartbeat IPC: 1.65350 cumulative IPC: 1.16713 (Simulation time: 0 hr 4 min 4 sec) 
Heartbeat CPU  0 instructions:  140000000 cycles:   77631523 heartbeat IPC: 1.13364 cumulative IPC: 1.16627 (Simulation time: 0 hr 4 min 6 sec) 
Heartbeat CPU  0 instructions:  141000000 cycles:   78643237 heartbeat IPC: 0.98842 cumulative IPC: 1.16117 (Simulation time: 0 hr 4 min 9 sec) 
Heartbeat CPU  0 instructions:  142000001 cycles:   79621197 heartbeat IPC: 1.02254 cumulative IPC: 1.15744 (Simulation time: 0 hr 4 min 11 sec) 
Heartbeat CPU  0 instructions:  143000003 cycles:   80290802 heartbeat IPC: 1.49342 cumulative IPC: 1.16352 (Simulation time: 0 hr 4 min 13 sec) 
Heartbeat CPU  0 instructions:  144000000 cycles:   80890812 heartbeat IPC: 1.66663 cumulative IPC: 1.17156 (Simulation time: 0 hr 4 min 15 sec) 
Heartbeat CPU  0 instructions:  145000002 cycles:   81865366 heartbeat IPC: 1.02611 cumulative IPC: 1.16788 (Simulation time: 0 hr 4 min 17 sec) 
Heartbeat CPU  0 instructions:  146000002 cycles:   82890652 heartbeat IPC: 0.97534 cumulative IPC: 1.16289 (Simulation time: 0 hr 4 min 19 sec) 
Heartbeat CPU  0 instructions:  147000002 cycles:   83761397 heartbeat IPC: 1.14844 cumulative IPC: 1.16258 (Simulation time: 0 hr 4 min 21 sec) 
Heartbeat CPU  0 instructions:  148000000 cycles:   84362191 heartbeat IPC: 1.66446 cumulative IPC: 1.16993 (Simulation time: 0 hr 4 min 23 sec) 
Heartbeat CPU  0 instructions:  149000000 cycles:   85056108 heartbeat IPC: 1.44109 cumulative IPC: 1.17444 (Simulation time: 0 hr 4 min 25 sec) 
Heartbeat CPU  0 instructions:  150000003 cycles:   86073009 heartbeat IPC: 0.98338 cumulative IPC: 1.16989 (Simulation time: 0 hr 4 min 27 sec) 
Heartbeat CPU  0 instructions:  151000002 cycles:   87155556 heartbeat IPC: 0.92375 cumulative IPC: 1.16381 (Simulation time: 0 hr 4 min 30 sec) 
Heartbeat CPU  0 instructions:  152000000 cycles:   88052921 heartbeat IPC: 1.11437 cumulative IPC: 1.16282 (Simulation time: 0 hr 4 min 32 sec) 
Heartbeat CPU  0 instructions:  153000001 cycles:   88784816 heartbeat IPC: 1.36632 cumulative IPC: 1.16610 (Simulation time: 0 hr 4 min 34 sec) 
Heartbeat CPU  0 instructions:  154000003 cycles:   89388638 heartbeat IPC: 1.65612 cumulative IPC: 1.17252 (Simulation time: 0 hr 4 min 36 sec) 
Heartbeat CPU  0 instructions:  155000003 cycles:   90216623 heartbeat IPC: 1.20775 cumulative IPC: 1.17315 (Simulation time: 0 hr 4 min 38 sec) 
Heartbeat CPU  0 instructions:  156000000 cycles:   91223801 heartbeat IPC: 0.99287 cumulative IPC: 1.16935 (Simulation time: 0 hr 4 min 40 sec) 
Heartbeat CPU  0 instructions:  157000003 cycles:   92171501 heartbeat IPC: 1.05519 cumulative IPC: 1.16714 (Simulation time: 0 hr 4 min 42 sec) 
Heartbeat CPU  0 instructions:  158000002 cycles:   92811777 heartbeat IPC: 1.56182 cumulative IPC: 1.17225 (Simulation time: 0 hr 4 min 44 sec) 
Heartbeat CPU  0 instructions:  159000000 cycles:   93412814 heartbeat IPC: 1.66379 cumulative IPC: 1.17815 (Simulation time: 0 hr 4 min 46 sec) 
Heartbeat CPU  0 instructions:  160000000 cycles:   94435118 heartbeat IPC: 0.97818 cumulative IPC: 1.17415 (Simulation time: 0 hr 4 min 48 sec) 
Heartbeat CPU  0 instructions:  161000000 cycles:   95452932 heartbeat IPC: 0.98250 cumulative IPC: 1.17040 (Simulation time: 0 hr 4 min 51 sec) 
Heartbeat CPU  0 instructions:  162000003 cycles:   96204718 heartbeat IPC: 1.33017 cumulative IPC: 1.17267 (Simulation time: 0 hr 4 min 53 sec) 
Heartbeat CPU  0 instructions:  163000002 cycles:   96805668 heartbeat IPC: 1.66403 cumulative IPC: 1.17820 (Simulation time: 0 hr 4 min 55 sec) 
Heartbeat CPU  0 instructions:  164000000 cycles:   97611776 heartbeat IPC: 1.24053 cumulative IPC: 1.17912 (Simulation time: 0 hr 4 min 57 sec) 
Heartbeat CPU  0 instructions:  165000000 cycles:   98612341 heartbeat IPC: 0.99944 cumulative IPC: 1.17587 (Simulation time: 0 hr 4 min 59 sec) 
Heartbeat CPU  0 instructions:  166000002 cycles:   99553893 heartbeat IPC: 1.06208 cumulative IPC: 1.17396 (Simulation time: 0 hr 5 min 1 sec) 
Heartbeat CPU  0 instructions:  167000001 cycles:  100196788 heartbeat IPC: 1.55546 cumulative IPC: 1.17828 (Simulation time: 0 hr 5 min 3 sec) 
Heartbeat CPU  0 instructions:  168000000 cycles:  100797487 heartbeat IPC: 1.66473 cumulative IPC: 1.18336 (Simulation time: 0 hr 5 min 5 sec) 
Heartbeat CPU  0 instructions:  169000000 cycles:  101808250 heartbeat IPC: 0.98935 cumulative IPC: 1.18001 (Simulation time: 0 hr 5 min 7 sec) 
Heartbeat CPU  0 instructions:  170000002 cycles:  102830993 heartbeat IPC: 0.97776 cumulative IPC: 1.17653 (Simulation time: 0 hr 5 min 9 sec) 
Heartbeat CPU  0 instructions:  171000003 cycles:  103587465 heartbeat IPC: 1.32193 cumulative IPC: 1.17836 (Simulation time: 0 hr 5 min 11 sec) 
Heartbeat CPU  0 instructions:  172000000 cycles:  104190589 heartbeat IPC: 1.65803 cumulative IPC: 1.18311 (Simulation time: 0 hr 5 min 14 sec) 
Heartbeat CPU  0 instructions:  173000000 cycles:  104993007 heartbeat IPC: 1.24623 cumulative IPC: 1.18393 (Simulation time: 0 hr 5 min 16 sec) 
Heartbeat CPU  0 instructions:  174000000 cycles:  106003760 heartbeat IPC: 0.98936 cumulative IPC: 1.18079 (Simulation time: 0 hr 5 min 18 sec) 
Heartbeat CPU  0 instructions:  175000002 cycles:  106946110 heartbeat IPC: 1.06118 cumulative IPC: 1.17902 (Simulation time: 0 hr 5 min 20 sec) 
Heartbeat CPU  0 instructions:  176000000 cycles:  107589411 heartbeat IPC: 1.55448 cumulative IPC: 1.18278 (Simulation time: 0 hr 5 min 22 sec) 
Heartbeat CPU  0 instructions:  177000003 cycles:  108188534 heartbeat IPC: 1.66911 cumulative IPC: 1.18727 (Simulation time: 0 hr 5 min 24 sec) 
Heartbeat CPU  0 instructions:  178000003 cycles:  109186881 heartbeat IPC: 1.00166 cumulative IPC: 1.18446 (Simulation time: 0 hr 5 min 26 sec) 
Heartbeat CPU  0 instructions:  179000002 cycles:  110215523 heartbeat IPC: 0.97215 cumulative IPC: 1.18120 (Simulation time: 0 hr 5 min 28 sec) 
Heartbeat CPU  0 instructions:  180000000 cycles:  110973875 heartbeat IPC: 1.31865 cumulative IPC: 1.18274 (Simulation time: 0 hr 5 min 30 sec) 
Heartbeat CPU  0 instructions:  181000002 cycles:  111577986 heartbeat IPC: 1.65533 cumulative IPC: 1.18692 (Simulation time: 0 hr 5 min 32 sec) 
Heartbeat CPU  0 instructions:  182000001 cycles:  112372059 heartbeat IPC: 1.25933 cumulative IPC: 1.18775 (Simulation time: 0 hr 5 min 34 sec) 
Heartbeat CPU  0 instructions:  183000002 cycles:  113358613 heartbeat IPC: 1.01363 cumulative IPC: 1.18530 (Simulation time: 0 hr 5 min 37 sec) 
Heartbeat CPU  0 instructions:  184000000 cycles:  114305091 heartbeat IPC: 1.05655 cumulative IPC: 1.18358 (Simulation time: 0 hr 5 min 39 sec) 
Heartbeat CPU  0 instructions:  185000003 cycles:  114953687 heartbeat IPC: 1.54180 cumulative IPC: 1.18683 (Simulation time: 0 hr 5 min 41 sec) 
Heartbeat CPU  0 instructions:  186000001 cycles:  115554986 heartbeat IPC: 1.66306 cumulative IPC: 1.19079 (Simulation time: 0 hr 5 min 43 sec) 
Heartbeat CPU  0 instructions:  187000002 cycles:  116552132 heartbeat IPC: 1.00286 cumulative IPC: 1.18823 (Simulation time: 0 hr 5 min 45 sec) 
Heartbeat CPU  0 instructions:  188000000 cycles:  117579823 heartbeat IPC: 0.97305 cumulative IPC: 1.18525 (Simulation time: 0 hr 5 min 47 sec) 
Heartbeat CPU  0 instructions:  189000001 cycles:  118350067 heartbeat IPC: 1.29829 cumulative IPC: 1.18641 (Simulation time: 0 hr 5 min 49 sec) 
Heartbeat CPU  0 instructions:  190000001 cycles:  118951768 heartbeat IPC: 1.66195 cumulative IPC: 1.19020 (Simulation time: 0 hr 5 min 51 sec) 
Heartbeat CPU  0 instructions:  191000003 cycles:  119746815 heartbeat IPC: 1.25779 cumulative IPC: 1.19090 (Simulation time: 0 hr 5 min 53 sec) 
Heartbeat CPU  0 instructions:  192000000 cycles:  120737949 heartbeat IPC: 1.00894 cumulative IPC: 1.18857 (Simulation time: 0 hr 5 min 55 sec) 
Heartbeat CPU  0 instructions:  193000002 cycles:  121697288 heartbeat IPC: 1.04239 cumulative IPC: 1.18678 (Simulation time: 0 hr 5 min 57 sec) 
Heartbeat CPU  0 instructions:  194000002 cycles:  122344816 heartbeat IPC: 1.54433 cumulative IPC: 1.18971 (Simulation time: 0 hr 6 min 0 sec) 
Heartbeat CPU  0 instructions:  195000003 cycles:  122944519 heartbeat IPC: 1.66749 cumulative IPC: 1.19331 (Simulation time: 0 hr 6 min 2 sec) 
Heartbeat CPU  0 instructions:  196000000 cycles:  123936919 heartbeat IPC: 1.00766 cumulative IPC: 1.19103 (Simulation time: 0 hr 6 min 4 sec) 
Heartbeat CPU  0 instructions:  197000002 cycles:  124977728 heartbeat IPC: 0.96079 cumulative IPC: 1.18809 (Simulation time: 0 hr 6 min 6 sec) 
Heartbeat CPU  0 instructions:  198000001 cycles:  125742142 heartbeat IPC: 1.30819 cumulative IPC: 1.18920 (Simulation time: 0 hr 6 min 8 sec) 
Heartbeat CPU  0 instructions:  199000001 cycles:  126344015 heartbeat IPC: 1.66148 cumulative IPC: 1.19263 (Simulation time: 0 hr 6 min 10 sec) 
Heartbeat CPU  0 instructions:  200000000 cycles:  127128137 heartbeat IPC: 1.27531 cumulative IPC: 1.19340 (Simulation time: 0 hr 6 min 12 sec) 
Heartbeat CPU  0 instructions:  201000003 cycles:  128113149 heartbeat IPC: 1.01522 cumulative IPC: 1.19133 (Simulation time: 0 hr 6 min 14 sec) 
Heartbeat CPU  0 instructions:  202000001 cycles:  129068480 heartbeat IPC: 1.04676 cumulative IPC: 1.18972 (Simulation time: 0 hr 6 min 16 sec) 
Heartbeat CPU  0 instructions:  203000001 cycles:  129728667 heartbeat IPC: 1.51472 cumulative IPC: 1.19220 (Simulation time: 0 hr 6 min 18 sec) 
Heartbeat CPU  0 instructions:  204000000 cycles:  130328679 heartbeat IPC: 1.66663 cumulative IPC: 1.19548 (Simulation time: 0 hr 6 min 20 sec) 
Heartbeat CPU  0 instructions:  205000002 cycles:  131293944 heartbeat IPC: 1.03599 cumulative IPC: 1.19373 (Simulation time: 0 hr 6 min 23 sec) 
Heartbeat CPU  0 instructions:  206000001 cycles:  132329944 heartbeat IPC: 0.96525 cumulative IPC: 1.19107 (Simulation time: 0 hr 6 min 25 sec) 
Heartbeat CPU  0 instructions:  207000000 cycles:  133108695 heartbeat IPC: 1.28411 cumulative IPC: 1.19187 (Simulation time: 0 hr 6 min 27 sec) 
Heartbeat CPU  0 instructions:  208000000 cycles:  133709500 heartbeat IPC: 1.66443 cumulative IPC: 1.19502 (Simulation time: 0 hr 6 min 29 sec) 
Heartbeat CPU  0 instructions:  209000001 cycles:  134483052 heartbeat IPC: 1.29274 cumulative IPC: 1.19585 (Simulation time: 0 hr 6 min 31 sec) 
Heartbeat CPU  0 instructions:  210000000 cycles:  135468151 heartbeat IPC: 1.01513 cumulative IPC: 1.19391 (Simulation time: 0 hr 6 min 33 sec) 
Heartbeat CPU  0 instructions:  211000003 cycles:  136517612 heartbeat IPC: 0.95287 cumulative IPC: 1.19120 (Simulation time: 0 hr 6 min 35 sec) 
Heartbeat CPU  0 instructions:  212000000 cycles:  137363234 heartbeat IPC: 1.18256 cumulative IPC: 1.19112 (Simulation time: 0 hr 6 min 37 sec) 
Heartbeat CPU  0 instructions:  213000002 cycles:  138029082 heartbeat IPC: 1.50185 cumulative IPC: 1.19331 (Simulation time: 0 hr 6 min 39 sec) 
Heartbeat CPU  0 instructions:  214000001 cycles:  138629920 heartbeat IPC: 1.66434 cumulative IPC: 1.19628 (Simulation time: 0 hr 6 min 41 sec) 
Heartbeat CPU  0 instructions:  215000002 cycles:  139607685 heartbeat IPC: 1.02274 cumulative IPC: 1.19451 (Simulation time: 0 hr 6 min 44 sec) 
Heartbeat CPU  0 instructions:  216000000 cycles:  140645753 heartbeat IPC: 0.96333 cumulative IPC: 1.19205 (Simulation time: 0 hr 6 min 46 sec) 
Heartbeat CPU  0 instructions:  217000001 cycles:  141412411 heartbeat IPC: 1.30436 cumulative IPC: 1.19292 (Simulation time: 0 hr 6 min 48 sec) 
Heartbeat CPU  0 instructions:  218000000 cycles:  142011843 heartbeat IPC: 1.66824 cumulative IPC: 1.19581 (Simulation time: 0 hr 6 min 50 sec) 
Heartbeat CPU  0 instructions:  219000000 cycles:  142795429 heartbeat IPC: 1.27618 cumulative IPC: 1.19645 (Simulation time: 0 hr 6 min 52 sec) 
Heartbeat CPU  0 instructions:  220000000 cycles:  143781061 heartbeat IPC: 1.01458 cumulative IPC: 1.19466 (Simulation time: 0 hr 6 min 54 sec) 
Heartbeat CPU  0 instructions:  221000001 cycles:  144736318 heartbeat IPC: 1.04684 cumulative IPC: 1.19327 (Simulation time: 0 hr 6 min 56 sec) 
Heartbeat CPU  0 instructions:  222000002 cycles:  145388175 heartbeat IPC: 1.53408 cumulative IPC: 1.19544 (Simulation time: 0 hr 6 min 58 sec) 
Heartbeat CPU  0 instructions:  223000000 cycles:  145989409 heartbeat IPC: 1.66324 cumulative IPC: 1.19818 (Simulation time: 0 hr 7 min 0 sec) 
Heartbeat CPU  0 instructions:  224000000 cycles:  146979345 heartbeat IPC: 1.01017 cumulative IPC: 1.19639 (Simulation time: 0 hr 7 min 2 sec) 
Heartbeat CPU  0 instructions:  225000001 cycles:  148008948 heartbeat IPC: 0.97125 cumulative IPC: 1.19417 (Simulation time: 0 hr 7 min 4 sec) 
Heartbeat CPU  0 instructions:  226000002 cycles:  148769732 heartbeat IPC: 1.31443 cumulative IPC: 1.19504 (Simulation time: 0 hr 7 min 7 sec) 
Heartbeat CPU  0 instructions:  227000001 cycles:  149371394 heartbeat IPC: 1.66206 cumulative IPC: 1.19769 (Simulation time: 0 hr 7 min 9 sec) 
Heartbeat CPU  0 instructions:  228000000 cycles:  150160958 heartbeat IPC: 1.26652 cumulative IPC: 1.19820 (Simulation time: 0 hr 7 min 11 sec) 
Heartbeat CPU  0 instructions:  229000003 cycles:  151152007 heartbeat IPC: 1.00903 cumulative IPC: 1.19646 (Simulation time: 0 hr 7 min 13 sec) 
Heartbeat CPU  0 instructions:  230000001 cycles:  152104630 heartbeat IPC: 1.04973 cumulative IPC: 1.19518 (Simulation time: 0 hr 7 min 15 sec) 
Heartbeat CPU  0 instructions:  231000002 cycles:  152754756 heartbeat IPC: 1.53816 cumulative IPC: 1.19721 (Simulation time: 0 hr 7 min 17 sec) 
Heartbeat CPU  0 instructions:  232000000 cycles:  153356490 heartbeat IPC: 1.66186 cumulative IPC: 1.19976 (Simulation time: 0 hr 7 min 19 sec) 
Heartbeat CPU  0 instructions:  233000002 cycles:  154337750 heartbeat IPC: 1.01910 cumulative IPC: 1.19816 (Simulation time: 0 hr 7 min 21 sec) 
Heartbeat CPU  0 instructions:  234000002 cycles:  155371584 heartbeat IPC: 0.96727 cumulative IPC: 1.19603 (Simulation time: 0 hr 7 min 23 sec) 
Heartbeat CPU  0 instructions:  235000000 cycles:  156126372 heartbeat IPC: 1.32487 cumulative IPC: 1.19689 (Simulation time: 0 hr 7 min 25 sec) 
Heartbeat CPU  0 instructions:  236000000 cycles:  156727959 heartbeat IPC: 1.66227 cumulative IPC: 1.19936 (Simulation time: 0 hr 7 min 27 sec) 
Heartbeat CPU  0 instructions:  237000003 cycles:  157515259 heartbeat IPC: 1.27017 cumulative IPC: 1.19985 (Simulation time: 0 hr 7 min 30 sec) 
Heartbeat CPU  0 instructions:  238000000 cycles:  158503736 heartbeat IPC: 1.01165 cumulative IPC: 1.19823 (Simulation time: 0 hr 7 min 32 sec) 
Heartbeat CPU  0 instructions:  239000000 cycles:  159446354 heartbeat IPC: 1.06088 cumulative IPC: 1.19712 (Simulation time: 0 hr 7 min 34 sec) 
Heartbeat CPU  0 instructions:  240000000 cycles:  160100599 heartbeat IPC: 1.52848 cumulative IPC: 1.19897 (Simulation time: 0 hr 7 min 36 sec) 
Heartbeat CPU  0 instructions:  241000000 cycles:  160700507 heartbeat IPC: 1.66692 cumulative IPC: 1.20137 (Simulation time: 0 hr 7 min 38 sec) 
Heartbeat CPU  0 instructions:  242000002 cycles:  161675917 heartbeat IPC: 1.02521 cumulative IPC: 1.19991 (Simulation time: 0 hr 7 min 40 sec) 
Heartbeat CPU  0 instructions:  243000001 cycles:  162703625 heartbeat IPC: 0.97304 cumulative IPC: 1.19796 (Simulation time: 0 hr 7 min 42 sec) 
Heartbeat CPU  0 instructions:  244000000 cycles:  163474921 heartbeat IPC: 1.29652 cumulative IPC: 1.19859 (Simulation time: 0 hr 7 min 44 sec) 
Heartbeat CPU  0 instructions:  245000001 cycles:  164078878 heartbeat IPC: 1.65575 cumulative IPC: 1.20088 (Simulation time: 0 hr 7 min 46 sec) 
Heartbeat CPU  0 instructions:  246000000 cycles:  164859181 heartbeat IPC: 1.28155 cumulative IPC: 1.20140 (Simulation time: 0 hr 7 min 48 sec) 
Heartbeat CPU  0 instructions:  247000001 cycles:  165840814 heartbeat IPC: 1.01871 cumulative IPC: 1.19993 (Simulation time: 0 hr 7 min 50 sec) 
Heartbeat CPU  0 instructions:  248000000 cycles:  166796629 heartbeat IPC: 1.04623 cumulative IPC: 1.19874 (Simulation time: 0 hr 7 min 52 sec) 
Heartbeat CPU  0 instructions:  249000003 cycles:  167456254 heartbeat IPC: 1.51602 cumulative IPC: 1.20043 (Simulation time: 0 hr 7 min 55 sec) 
Heartbeat CPU  0 instructions:  250000003 cycles:  168057891 heartbeat IPC: 1.66213 cumulative IPC: 1.20266 (Simulation time: 0 hr 7 min 57 sec) 
Heartbeat CPU  0 instructions:  251000002 cycles:  169046468 heartbeat IPC: 1.01155 cumulative IPC: 1.20115 (Simulation time: 0 hr 7 min 59 sec) 
Heartbeat CPU  0 instructions:  252000000 cycles:  170081290 heartbeat IPC: 0.96635 cumulative IPC: 1.19924 (Simulation time: 0 hr 8 min 1 sec) 
Heartbeat CPU  0 instructions:  253000002 cycles:  170849220 heartbeat IPC: 1.30220 cumulative IPC: 1.19986 (Simulation time: 0 hr 8 min 3 sec) 
Heartbeat CPU  0 instructions:  254000003 cycles:  171451410 heartbeat IPC: 1.66061 cumulative IPC: 1.20202 (Simulation time: 0 hr 8 min 5 sec) 
Heartbeat CPU  0 instructions:  255000002 cycles:  172244715 heartbeat IPC: 1.26055 cumulative IPC: 1.20238 (Simulation time: 0 hr 8 min 7 sec) 
Heartbeat CPU  0 instructions:  256000000 cycles:  173239749 heartbeat IPC: 1.00499 cumulative IPC: 1.20087 (Simulation time: 0 hr 8 min 9 sec) 
Heartbeat CPU  0 instructions:  257000001 cycles:  174187581 heartbeat IPC: 1.05504 cumulative IPC: 1.19982 (Simulation time: 0 hr 8 min 11 sec) 
Heartbeat CPU  0 instructions:  258000002 cycles:  174833535 heartbeat IPC: 1.54810 cumulative IPC: 1.20153 (Simulation time: 0 hr 8 min 13 sec) 
Heartbeat CPU  0 instructions:  259000000 cycles:  175431758 heartbeat IPC: 1.67161 cumulative IPC: 1.20366 (Simulation time: 0 hr 8 min 15 sec) 
Heartbeat CPU  0 instructions:  260000000 cycles:  176434364 heartbeat IPC: 0.99740 cumulative IPC: 1.20210 (Simulation time: 0 hr 8 min 18 sec) 
Heartbeat CPU  0 instructions:  261000003 cycles:  177452283 heartbeat IPC: 0.98240 cumulative IPC: 1.20043 (Simulation time: 0 hr 8 min 20 sec) 
Heartbeat CPU  0 instructions:  262000001 cycles:  178205706 heartbeat IPC: 1.32727 cumulative IPC: 1.20114 (Simulation time: 0 hr 8 min 22 sec) 
Heartbeat CPU  0 instructions:  263000002 cycles:  178808240 heartbeat IPC: 1.65966 cumulative IPC: 1.20318 (Simulation time: 0 hr 8 min 24 sec) 
Heartbeat CPU  0 instructions:  264000000 cycles:  179620035 heartbeat IPC: 1.23184 cumulative IPC: 1.20335 (Simulation time: 0 hr 8 min 26 sec) 
Heartbeat CPU  0 instructions:  265000000 cycles:  180661110 heartbeat IPC: 0.96055 cumulative IPC: 1.20151 (Simulation time: 0 hr 8 min 28 sec) 
Heartbeat CPU  0 instructions:  266000000 cycles:  181670563 heartbeat IPC: 0.99064 cumulative IPC: 1.19997 (Simulation time: 0 hr 8 min 30 sec) 
Heartbeat CPU  0 instructions:  267000002 cycles:  182492047 heartbeat IPC: 1.21731 cumulative IPC: 1.20008 (Simulation time: 0 hr 8 min 32 sec) 
Heartbeat CPU  0 instructions:  268000000 cycles:  183129044 heartbeat IPC: 1.56986 cumulative IPC: 1.20176 (Simulation time: 0 hr 8 min 34 sec) 
Heartbeat CPU  0 instructions:  269000002 cycles:  183728954 heartbeat IPC: 1.66692 cumulative IPC: 1.20375 (Simulation time: 0 hr 8 min 37 sec) 
Heartbeat CPU  0 instructions:  270000003 cycles:  185012283 heartbeat IPC: 0.77922 cumulative IPC: 1.19990 (Simulation time: 0 hr 8 min 39 sec) 
Heartbeat CPU  0 instructions:  271000001 cycles:  185905992 heartbeat IPC: 1.11893 cumulative IPC: 1.19940 (Simulation time: 0 hr 8 min 41 sec) 
Heartbeat CPU  0 instructions:  272000000 cycles:  186515009 heartbeat IPC: 1.64199 cumulative IPC: 1.20128 (Simulation time: 0 hr 8 min 43 sec) 
Heartbeat CPU  0 instructions:  273000001 cycles:  187190020 heartbeat IPC: 1.48146 cumulative IPC: 1.20259 (Simulation time: 0 hr 8 min 45 sec) 
Heartbeat CPU  0 instructions:  274000002 cycles:  188497202 heartbeat IPC: 0.76501 cumulative IPC: 1.19865 (Simulation time: 0 hr 8 min 47 sec) 
Heartbeat CPU  0 instructions:  275000003 cycles:  189275339 heartbeat IPC: 1.28512 cumulative IPC: 1.19911 (Simulation time: 0 hr 8 min 49 sec) 
Heartbeat CPU  0 instructions:  276000000 cycles:  189876176 heartbeat IPC: 1.66434 cumulative IPC: 1.20102 (Simulation time: 0 hr 8 min 51 sec) 
Heartbeat CPU  0 instructions:  277000001 cycles:  190711257 heartbeat IPC: 1.19749 cumulative IPC: 1.20100 (Simulation time: 0 hr 8 min 54 sec) 
Heartbeat CPU  0 instructions:  278000002 cycles:  191902606 heartbeat IPC: 0.83939 cumulative IPC: 1.19810 (Simulation time: 0 hr 8 min 56 sec) 
Heartbeat CPU  0 instructions:  279000003 cycles:  192646358 heartbeat IPC: 1.34454 cumulative IPC: 1.19883 (Simulation time: 0 hr 8 min 58 sec) 
Heartbeat CPU  0 instructions:  280000000 cycles:  193248392 heartbeat IPC: 1.66103 cumulative IPC: 1.20069 (Simulation time: 0 hr 9 min 0 sec) 
Heartbeat CPU  0 instructions:  281000003 cycles:  194132348 heartbeat IPC: 1.13128 cumulative IPC: 1.20028 (Simulation time: 0 hr 9 min 2 sec) 
Heartbeat CPU  0 instructions:  282000001 cycles:  195305169 heartbeat IPC: 0.85264 cumulative IPC: 1.19760 (Simulation time: 0 hr 9 min 4 sec) 
Heartbeat CPU  0 instructions:  283000003 cycles:  196043873 heartbeat IPC: 1.35372 cumulative IPC: 1.19835 (Simulation time: 0 hr 9 min 6 sec) 
Heartbeat CPU  0 instructions:  284000000 cycles:  196646963 heartbeat IPC: 1.65812 cumulative IPC: 1.20016 (Simulation time: 0 hr 9 min 8 sec) 
Heartbeat CPU  0 instructions:  285000002 cycles:  197672412 heartbeat IPC: 0.97518 cumulative IPC: 1.19867 (Simulation time: 0 hr 9 min 10 sec) 
Heartbeat CPU  0 instructions:  286000002 cycles:  199024230 heartbeat IPC: 0.73974 cumulative IPC: 1.19468 (Simulation time: 0 hr 9 min 13 sec) 
Heartbeat CPU  0 instructions:  287000003 cycles:  199917204 heartbeat IPC: 1.11985 cumulative IPC: 1.19425 (Simulation time: 0 hr 9 min 15 sec) 
Heartbeat CPU  0 instructions:  288000000 cycles:  200520207 heartbeat IPC: 1.65836 cumulative IPC: 1.19603 (Simulation time: 0 hr 9 min 17 sec) 
Heartbeat CPU  0 instructions:  289000001 cycles:  201306558 heartbeat IPC: 1.27170 cumulative IPC: 1.19641 (Simulation time: 0 hr 9 min 19 sec) 
Heartbeat CPU  0 instructions:  290000001 cycles:  202524878 heartbeat IPC: 0.82080 cumulative IPC: 1.19354 (Simulation time: 0 hr 9 min 21 sec) 
Heartbeat CPU  0 instructions:  291000003 cycles:  203780403 heartbeat IPC: 0.79648 cumulative IPC: 1.19043 (Simulation time: 0 hr 9 min 23 sec) 
Heartbeat CPU  0 instructions:  292000000 cycles:  204889311 heartbeat IPC: 0.90179 cumulative IPC: 1.18845 (Simulation time: 0 hr 9 min 25 sec) 
Heartbeat CPU  0 instructions:  293000001 cycles:  205560517 heartbeat IPC: 1.48986 cumulative IPC: 1.18970 (Simulation time: 0 hr 9 min 27 sec) 
Heartbeat CPU  0 instructions:  294000002 cycles:  206163531 heartbeat IPC: 1.65834 cumulative IPC: 1.19143 (Simulation time: 0 hr 9 min 30 sec) 
Heartbeat CPU  0 instructions:  295000003 cycles:  207210064 heartbeat IPC: 0.95554 cumulative IPC: 1.18992 (Simulation time: 0 hr 9 min 32 sec) 
Heartbeat CPU  0 instructions:  296000000 cycles:  208254688 heartbeat IPC: 0.95728 cumulative IPC: 1.18845 (Simulation time: 0 hr 9 min 34 sec) 
Heartbeat CPU  0 instructions:  297000002 cycles:  209289421 heartbeat IPC: 0.96643 cumulative IPC: 1.18707 (Simulation time: 0 hr 9 min 36 sec) 
Heartbeat CPU  0 instructions:  298000003 cycles:  210414765 heartbeat IPC: 0.88862 cumulative IPC: 1.18506 (Simulation time: 0 hr 9 min 38 sec) 
Heartbeat CPU  0 instructions:  299000001 cycles:  211291698 heartbeat IPC: 1.14034 cumulative IPC: 1.18482 (Simulation time: 0 hr 9 min 40 sec) 
Heartbeat CPU  0 instructions:  300000000 cycles:  211901176 heartbeat IPC: 1.64075 cumulative IPC: 1.18647 (Simulation time: 0 hr 9 min 42 sec) 
Heartbeat CPU  0 instructions:  301000000 cycles:  212805589 heartbeat IPC: 1.10569 cumulative IPC: 1.18604 (Simulation time: 0 hr 9 min 44 sec) 
Heartbeat CPU  0 instructions:  302000001 cycles:  213841003 heartbeat IPC: 0.96580 cumulative IPC: 1.18470 (Simulation time: 0 hr 9 min 46 sec) 
Heartbeat CPU  0 instructions:  303000003 cycles:  214855671 heartbeat IPC: 0.98555 cumulative IPC: 1.18352 (Simulation time: 0 hr 9 min 49 sec) 
Heartbeat CPU  0 instructions:  304000000 cycles:  215894064 heartbeat IPC: 0.96302 cumulative IPC: 1.18220 (Simulation time: 0 hr 9 min 51 sec) 
Heartbeat CPU  0 instructions:  305000000 cycles:  217101567 heartbeat IPC: 0.82816 cumulative IPC: 1.17974 (Simulation time: 0 hr 9 min 53 sec) 
Heartbeat CPU  0 instructions:  306000002 cycles:  217961779 heartbeat IPC: 1.16251 cumulative IPC: 1.17965 (Simulation time: 0 hr 9 min 55 sec) 
Heartbeat CPU  0 instructions:  307000001 cycles:  218564131 heartbeat IPC: 1.66016 cumulative IPC: 1.18130 (Simulation time: 0 hr 9 min 57 sec) 
Heartbeat CPU  0 instructions:  308000000 cycles:  219401850 heartbeat IPC: 1.19372 cumulative IPC: 1.18136 (Simulation time: 0 hr 9 min 59 sec) 
Heartbeat CPU  0 instructions:  309000002 cycles:  220455516 heartbeat IPC: 0.94907 cumulative IPC: 1.17998 (Simulation time: 0 hr 10 min 1 sec) 
Heartbeat CPU  0 instructions:  310000002 cycles:  221453308 heartbeat IPC: 1.00221 cumulative IPC: 1.17899 (Simulation time: 0 hr 10 min 3 sec) 
Heartbeat CPU  0 instructions:  311000002 cycles:  222502256 heartbeat IPC: 0.95334 cumulative IPC: 1.17766 (Simulation time: 0 hr 10 min 6 sec) 
Heartbeat CPU  0 instructions:  312000000 cycles:  223675733 heartbeat IPC: 0.85217 cumulative IPC: 1.17555 (Simulation time: 0 hr 10 min 8 sec) 
Heartbeat CPU  0 instructions:  313000003 cycles:  224472084 heartbeat IPC: 1.25573 cumulative IPC: 1.17590 (Simulation time: 0 hr 10 min 10 sec) 
Heartbeat CPU  0 instructions:  314000002 cycles:  225078271 heartbeat IPC: 1.64965 cumulative IPC: 1.17748 (Simulation time: 0 hr 10 min 12 sec) 
Heartbeat CPU  0 instructions:  315000003 cycles:  225957251 heartbeat IPC: 1.13768 cumulative IPC: 1.17729 (Simulation time: 0 hr 10 min 14 sec) 
Heartbeat CPU  0 instructions:  316000000 cycles:  227019509 heartbeat IPC: 0.94139 cumulative IPC: 1.17592 (Simulation time: 0 hr 10 min 16 sec) 
Heartbeat CPU  0 instructions:  317000002 cycles:  228164658 heartbeat IPC: 0.87325 cumulative IPC: 1.17405 (Simulation time: 0 hr 10 min 18 sec) 
Heartbeat CPU  0 instructions:  318000001 cycles:  229320706 heartbeat IPC: 0.86502 cumulative IPC: 1.17213 (Simulation time: 0 hr 10 min 20 sec) 
Heartbeat CPU  0 instructions:  319000002 cycles:  230145902 heartbeat IPC: 1.21183 cumulative IPC: 1.17230 (Simulation time: 0 hr 10 min 23 sec) 
Heartbeat CPU  0 instructions:  320000000 cycles:  230754965 heartbeat IPC: 1.64186 cumulative IPC: 1.17383 (Simulation time: 0 hr 10 min 25 sec) 
Heartbeat CPU  0 instructions:  321000000 cycles:  231660588 heartbeat IPC: 1.10421 cumulative IPC: 1.17349 (Simulation time: 0 hr 10 min 27 sec) 
Heartbeat CPU  0 instructions:  322000001 cycles:  232779663 heartbeat IPC: 0.89360 cumulative IPC: 1.17184 (Simulation time: 0 hr 10 min 29 sec) 
Heartbeat CPU  0 instructions:  323000000 cycles:  233939255 heartbeat IPC: 0.86237 cumulative IPC: 1.16996 (Simulation time: 0 hr 10 min 31 sec) 
Heartbeat CPU  0 instructions:  324000000 cycles:  235218212 heartbeat IPC: 0.78189 cumulative IPC: 1.16737 (Simulation time: 0 hr 10 min 33 sec) 
Heartbeat CPU  0 instructions:  325000000 cycles:  236060570 heartbeat IPC: 1.18714 cumulative IPC: 1.16746 (Simulation time: 0 hr 10 min 35 sec) 
Heartbeat CPU  0 instructions:  326000000 cycles:  236669060 heartbeat IPC: 1.64341 cumulative IPC: 1.16896 (Simulation time: 0 hr 10 min 37 sec) 
Heartbeat CPU  0 instructions:  327000001 cycles:  237448440 heartbeat IPC: 1.28307 cumulative IPC: 1.16941 (Simulation time: 0 hr 10 min 40 sec) 
Heartbeat CPU  0 instructions:  328000000 cycles:  238585793 heartbeat IPC: 0.87923 cumulative IPC: 1.16772 (Simulation time: 0 hr 10 min 42 sec) 
Heartbeat CPU  0 instructions:  329000000 cycles:  239701553 heartbeat IPC: 0.89625 cumulative IPC: 1.16618 (Simulation time: 0 hr 10 min 44 sec) 
Heartbeat CPU  0 instructions:  330000000 cycles:  240910422 heartbeat IPC: 0.82722 cumulative IPC: 1.16411 (Simulation time: 0 hr 10 min 46 sec) 
Heartbeat CPU  0 instructions:  331000003 cycles:  241727576 heartbeat IPC: 1.22376 cumulative IPC: 1.16435 (Simulation time: 0 hr 10 min 48 sec) 
Heartbeat CPU  0 instructions:  332000000 cycles:  242331924 heartbeat IPC: 1.65467 cumulative IPC: 1.16584 (Simulation time: 0 hr 10 min 50 sec) 
Heartbeat CPU  0 instructions:  333000000 cycles:  243141929 heartbeat IPC: 1.23456 cumulative IPC: 1.16612 (Simulation time: 0 hr 10 min 52 sec) 
Heartbeat CPU  0 instructions:  334000002 cycles:  244336906 heartbeat IPC: 0.83684 cumulative IPC: 1.16416 (Simulation time: 0 hr 10 min 54 sec) 
Heartbeat CPU  0 instructions:  335000002 cycles:  245514375 heartbeat IPC: 0.84928 cumulative IPC: 1.16233 (Simulation time: 0 hr 10 min 57 sec) 
Heartbeat CPU  0 instructions:  336000000 cycles:  246669326 heartbeat IPC: 0.86584 cumulative IPC: 1.16065 (Simulation time: 0 hr 10 min 59 sec) 
Heartbeat CPU  0 instructions:  337000003 cycles:  247503248 heartbeat IPC: 1.19916 cumulative IPC: 1.16080 (Simulation time: 0 hr 11 min 1 sec) 
Heartbeat CPU  0 instructions:  338000000 cycles:  248189964 heartbeat IPC: 1.45620 cumulative IPC: 1.16179 (Simulation time: 0 hr 11 min 3 sec) 
Heartbeat CPU  0 instructions:  339000001 cycles:  248792543 heartbeat IPC: 1.65954 cumulative IPC: 1.16325 (Simulation time: 0 hr 11 min 5 sec) 
Heartbeat CPU  0 instructions:  340000000 cycles:  249914175 heartbeat IPC: 0.89156 cumulative IPC: 1.16178 (Simulation time: 0 hr 11 min 7 sec) 
Heartbeat CPU  0 instructions:  341000000 cycles:  251105108 heartbeat IPC: 0.83968 cumulative IPC: 1.15993 (Simulation time: 0 hr 11 min 9 sec) 
Heartbeat CPU  0 instructions:  342000001 cycles:  252189801 heartbeat IPC: 0.92192 cumulative IPC: 1.15869 (Simulation time: 0 hr 11 min 11 sec) 
Heartbeat CPU  0 instructions:  343000001 cycles:  252916003 heartbeat IPC: 1.37703 cumulative IPC: 1.15945 (Simulation time: 0 hr 11 min 14 sec) 
Heartbeat CPU  0 instructions:  344000000 cycles:  253522128 heartbeat IPC: 1.64982 cumulative IPC: 1.16087 (Simulation time: 0 hr 11 min 16 sec) 
Heartbeat CPU  0 instructions:  345000002 cycles:  254533743 heartbeat IPC: 0.98852 cumulative IPC: 1.16004 (Simulation time: 0 hr 11 min 18 sec) 
Heartbeat CPU  0 instructions:  346000000 cycles:  255697650 heartbeat IPC: 0.85917 cumulative IPC: 1.15839 (Simulation time: 0 hr 11 min 20 sec) 
Heartbeat CPU  0 instructions:  347000000 cycles:  256879608 heartbeat IPC: 0.84605 cumulative IPC: 1.15666 (Simulation time: 0 hr 11 min 22 sec) 
Heartbeat CPU  0 instructions:  348000000 cycles:  257639961 heartbeat IPC: 1.31518 cumulative IPC: 1.15722 (Simulation time: 0 hr 11 min 24 sec) 
Heartbeat CPU  0 instructions:  349000003 cycles:  258242312 heartbeat IPC: 1.66017 cumulative IPC: 1.15863 (Simulation time: 0 hr 11 min 26 sec) 
Heartbeat CPU  0 instructions:  350000000 cycles:  259095297 heartbeat IPC: 1.17235 cumulative IPC: 1.15869 (Simulation time: 0 hr 11 min 28 sec) 
Heartbeat CPU  0 instructions:  351000000 cycles:  260252023 heartbeat IPC: 0.86451 cumulative IPC: 1.15712 (Simulation time: 0 hr 11 min 31 sec) 
Heartbeat CPU  0 instructions:  352000000 cycles:  261377036 heartbeat IPC: 0.88888 cumulative IPC: 1.15574 (Simulation time: 0 hr 11 min 33 sec) 
Heartbeat CPU  0 instructions:  353000001 cycles:  262125205 heartbeat IPC: 1.33660 cumulative IPC: 1.15635 (Simulation time: 0 hr 11 min 35 sec) 
Heartbeat CPU  0 instructions:  354000000 cycles:  262732918 heartbeat IPC: 1.64551 cumulative IPC: 1.15771 (Simulation time: 0 hr 11 min 37 sec) 
Heartbeat CPU  0 instructions:  355000002 cycles:  263613525 heartbeat IPC: 1.13558 cumulative IPC: 1.15762 (Simulation time: 0 hr 11 min 39 sec) 
Heartbeat CPU  0 instructions:  356000000 cycles:  264735299 heartbeat IPC: 0.89144 cumulative IPC: 1.15627 (Simulation time: 0 hr 11 min 41 sec) 
Heartbeat CPU  0 instructions:  357000000 cycles:  265849954 heartbeat IPC: 0.89714 cumulative IPC: 1.15497 (Simulation time: 0 hr 11 min 43 sec) 
Heartbeat CPU  0 instructions:  358000002 cycles:  266656093 heartbeat IPC: 1.24048 cumulative IPC: 1.15528 (Simulation time: 0 hr 11 min 45 sec) 
Heartbeat CPU  0 instructions:  359000000 cycles:  267262804 heartbeat IPC: 1.64823 cumulative IPC: 1.15662 (Simulation time: 0 hr 11 min 47 sec) 
Heartbeat CPU  0 instructions:  360000000 cycles:  268099436 heartbeat IPC: 1.19527 cumulative IPC: 1.15676 (Simulation time: 0 hr 11 min 50 sec) 
Heartbeat CPU  0 instructions:  361000002 cycles:  269178654 heartbeat IPC: 0.92660 cumulative IPC: 1.15566 (Simulation time: 0 hr 11 min 52 sec) 
Heartbeat CPU  0 instructions:  362000001 cycles:  270251150 heartbeat IPC: 0.93240 cumulative IPC: 1.15461 (Simulation time: 0 hr 11 min 54 sec) 
Heartbeat CPU  0 instructions:  363000002 cycles:  271270476 heartbeat IPC: 0.98104 cumulative IPC: 1.15383 (Simulation time: 0 hr 11 min 56 sec) 
Heartbeat CPU  0 instructions:  364000000 cycles:  272007262 heartbeat IPC: 1.35724 cumulative IPC: 1.15449 (Simulation time: 0 hr 11 min 58 sec) 
Heartbeat CPU  0 instructions:  365000002 cycles:  272612390 heartbeat IPC: 1.65255 cumulative IPC: 1.15580 (Simulation time: 0 hr 12 min 0 sec) 
Heartbeat CPU  0 instructions:  366000000 cycles:  273675784 heartbeat IPC: 0.94038 cumulative IPC: 1.15481 (Simulation time: 0 hr 12 min 2 sec) 
Heartbeat CPU  0 instructions:  367000000 cycles:  274888047 heartbeat IPC: 0.82490 cumulative IPC: 1.15308 (Simulation time: 0 hr 12 min 4 sec) 
Heartbeat CPU  0 instructions:  368000000 cycles:  276018618 heartbeat IPC: 0.88451 cumulative IPC: 1.15177 (Simulation time: 0 hr 12 min 7 sec) 
Heartbeat CPU  0 instructions:  369000001 cycles:  276785014 heartbeat IPC: 1.30481 cumulative IPC: 1.15228 (Simulation time: 0 hr 12 min 9 sec) 
Heartbeat CPU  0 instructions:  370000001 cycles:  277392605 heartbeat IPC: 1.64584 cumulative IPC: 1.15356 (Simulation time: 0 hr 12 min 11 sec) 
Heartbeat CPU  0 instructions:  371000000 cycles:  278460643 heartbeat IPC: 0.93630 cumulative IPC: 1.15257 (Simulation time: 0 hr 12 min 13 sec) 
Heartbeat CPU  0 instructions:  372000000 cycles:  279842223 heartbeat IPC: 0.72381 cumulative IPC: 1.15007 (Simulation time: 0 hr 12 min 15 sec) 
Heartbeat CPU  0 instructions:  373000001 cycles:  280865861 heartbeat IPC: 0.97691 cumulative IPC: 1.14932 (Simulation time: 0 hr 12 min 17 sec) 
Heartbeat CPU  0 instructions:  374000001 cycles:  281511780 heartbeat IPC: 1.54818 cumulative IPC: 1.15040 (Simulation time: 0 hr 12 min 19 sec) 
Heartbeat CPU  0 instructions:  375000000 cycles:  282114590 heartbeat IPC: 1.65890 cumulative IPC: 1.15169 (Simulation time: 0 hr 12 min 22 sec) 
Heartbeat CPU  0 instructions:  376000000 cycles:  283486584 heartbeat IPC: 0.72887 cumulative IPC: 1.14927 (Simulation time: 0 hr 12 min 24 sec) 
Heartbeat CPU  0 instructions:  377000001 cycles:  284800157 heartbeat IPC: 0.76128 cumulative IPC: 1.14716 (Simulation time: 0 hr 12 min 26 sec) 
Heartbeat CPU  0 instructions:  378000002 cycles:  285587584 heartbeat IPC: 1.26996 cumulative IPC: 1.14756 (Simulation time: 0 hr 12 min 28 sec) 
Heartbeat CPU  0 instructions:  379000001 cycles:  286190170 heartbeat IPC: 1.65951 cumulative IPC: 1.14883 (Simulation time: 0 hr 12 min 30 sec) 
Heartbeat CPU  0 instructions:  380000000 cycles:  287079195 heartbeat IPC: 1.12483 cumulative IPC: 1.14874 (Simulation time: 0 hr 12 min 32 sec) 
Heartbeat CPU  0 instructions:  381000001 cycles:  288374637 heartbeat IPC: 0.77194 cumulative IPC: 1.14675 (Simulation time: 0 hr 12 min 34 sec) 
Heartbeat CPU  0 instructions:  382000003 cycles:  289514551 heartbeat IPC: 0.87726 cumulative IPC: 1.14550 (Simulation time: 0 hr 12 min 37 sec) 
Heartbeat CPU  0 instructions:  383000000 cycles:  290261542 heartbeat IPC: 1.33870 cumulative IPC: 1.14609 (Simulation time: 0 hr 12 min 39 sec) 
Heartbeat CPU  0 instructions:  384000000 cycles:  290867505 heartbeat IPC: 1.65027 cumulative IPC: 1.14732 (Simulation time: 0 hr 12 min 41 sec) 
Heartbeat CPU  0 instructions:  385000000 cycles:  292026411 heartbeat IPC: 0.86288 cumulative IPC: 1.14599 (Simulation time: 0 hr 12 min 43 sec) 
Heartbeat CPU  0 instructions:  386000000 cycles:  293455648 heartbeat IPC: 0.69967 cumulative IPC: 1.14344 (Simulation time: 0 hr 12 min 45 sec) 
Heartbeat CPU  0 instructions:  387000000 cycles:  294531658 heartbeat IPC: 0.92936 cumulative IPC: 1.14253 (Simulation time: 0 hr 12 min 47 sec) 
Heartbeat CPU  0 instructions:  388000000 cycles:  295197135 heartbeat IPC: 1.50268 cumulative IPC: 1.14348 (Simulation time: 0 hr 12 min 49 sec) 
Heartbeat CPU  0 instructions:  389000000 cycles:  295799665 heartbeat IPC: 1.65967 cumulative IPC: 1.14471 (Simulation time: 0 hr 12 min 52 sec) 
Heartbeat CPU  0 instructions:  390000003 cycles:  297165510 heartbeat IPC: 0.73215 cumulative IPC: 1.14249 (Simulation time: 0 hr 12 min 54 sec) 
Heartbeat CPU  0 instructions:  391000003 cycles:  298588606 heartbeat IPC: 0.70269 cumulative IPC: 1.14004 (Simulation time: 0 hr 12 min 56 sec) 
Heartbeat CPU  0 instructions:  392000000 cycles:  299453655 heartbeat IPC: 1.15600 cumulative IPC: 1.14009 (Simulation time: 0 hr 12 min 58 sec) 
Heartbeat CPU  0 instructions:  393000001 cycles:  300058047 heartbeat IPC: 1.65456 cumulative IPC: 1.14130 (Simulation time: 0 hr 13 min 0 sec) 
Heartbeat CPU  0 instructions:  394000002 cycles:  300901859 heartbeat IPC: 1.18510 cumulative IPC: 1.14145 (Simulation time: 0 hr 13 min 2 sec) 
Heartbeat CPU  0 instructions:  395000002 cycles:  302253984 heartbeat IPC: 0.73958 cumulative IPC: 1.13935 (Simulation time: 0 hr 13 min 5 sec) 
Heartbeat CPU  0 instructions:  396000000 cycles:  303593792 heartbeat IPC: 0.74637 cumulative IPC: 1.13733 (Simulation time: 0 hr 13 min 7 sec) 
Heartbeat CPU  0 instructions:  397000000 cycles:  304514266 heartbeat IPC: 1.08640 cumulative IPC: 1.13715 (Simulation time: 0 hr 13 min 9 sec) 
Heartbeat CPU  0 instructions:  398000001 cycles:  305279646 heartbeat IPC: 1.30654 cumulative IPC: 1.13764 (Simulation time: 0 hr 13 min 11 sec) 
Heartbeat CPU  0 instructions:  399000000 cycles:  305884119 heartbeat IPC: 1.65433 cumulative IPC: 1.13883 (Simulation time: 0 hr 13 min 13 sec) 
Heartbeat CPU  0 instructions:  400000000 cycles:  306748299 heartbeat IPC: 1.15717 cumulative IPC: 1.13889 (Simulation time: 0 hr 13 min 15 sec) 
Heartbeat CPU  0 instructions:  401000002 cycles:  308004643 heartbeat IPC: 0.79596 cumulative IPC: 1.13726 (Simulation time: 0 hr 13 min 17 sec) 
Heartbeat CPU  0 instructions:  402000002 cycles:  309178474 heartbeat IPC: 0.85191 cumulative IPC: 1.13600 (Simulation time: 0 hr 13 min 20 sec) 
Heartbeat CPU  0 instructions:  403000002 cycles:  310169067 heartbeat IPC: 1.00950 cumulative IPC: 1.13553 (Simulation time: 0 hr 13 min 22 sec) 
Heartbeat CPU  0 instructions:  404000000 cycles:  310796646 heartbeat IPC: 1.59342 cumulative IPC: 1.13661 (Simulation time: 0 hr 13 min 24 sec) 
Heartbeat CPU  0 instructions:  405000001 cycles:  311443567 heartbeat IPC: 1.54579 cumulative IPC: 1.13760 (Simulation time: 0 hr 13 min 26 sec) 
Heartbeat CPU  0 instructions:  406000003 cycles:  312750853 heartbeat IPC: 0.76495 cumulative IPC: 1.13579 (Simulation time: 0 hr 13 min 28 sec) 
Heartbeat CPU  0 instructions:  407000000 cycles:  313953891 heartbeat IPC: 0.83123 cumulative IPC: 1.13443 (Simulation time: 0 hr 13 min 30 sec) 
Heartbeat CPU  0 instructions:  408000000 cycles:  314987283 heartbeat IPC: 0.96769 cumulative IPC: 1.13380 (Simulation time: 0 hr 13 min 32 sec) 
Heartbeat CPU  0 instructions:  409000001 cycles:  315702862 heartbeat IPC: 1.39747 cumulative IPC: 1.13449 (Simulation time: 0 hr 13 min 34 sec) 
Heartbeat CPU  0 instructions:  410000002 cycles:  316305161 heartbeat IPC: 1.66031 cumulative IPC: 1.13565 (Simulation time: 0 hr 13 min 36 sec) 
Heartbeat CPU  0 instructions:  411000001 cycles:  317496737 heartbeat IPC: 0.83922 cumulative IPC: 1.13436 (Simulation time: 0 hr 13 min 39 sec) 
Heartbeat CPU  0 instructions:  412000000 cycles:  318797378 heartbeat IPC: 0.76885 cumulative IPC: 1.13264 (Simulation time: 0 hr 13 min 41 sec) 
Heartbeat CPU  0 instructions:  413000001 cycles:  319882773 heartbeat IPC: 0.92132 cumulative IPC: 1.13181 (Simulation time: 0 hr 13 min 43 sec) 
Heartbeat CPU  0 instructions:  414000001 cycles:  320625230 heartbeat IPC: 1.34688 cumulative IPC: 1.13238 (Simulation time: 0 hr 13 min 45 sec) 
Heartbeat CPU  0 instructions:  415000000 cycles:  321229088 heartbeat IPC: 1.65602 cumulative IPC: 1.13352 (Simulation time: 0 hr 13 min 47 sec) 
Heartbeat CPU  0 instructions:  416000000 cycles:  322299654 heartbeat IPC: 0.93409 cumulative IPC: 1.13276 (Simulation time: 0 hr 13 min 49 sec) 
Heartbeat CPU  0 instructions:  417000003 cycles:  323503446 heartbeat IPC: 0.83071 cumulative IPC: 1.13146 (Simulation time: 0 hr 13 min 52 sec) 
Heartbeat CPU  0 instructions:  418000001 cycles:  324721051 heartbeat IPC: 0.82128 cumulative IPC: 1.13012 (Simulation time: 0 hr 13 min 54 sec) 
Heartbeat CPU  0 instructions:  419000000 cycles:  325786188 heartbeat IPC: 0.93885 cumulative IPC: 1.12940 (Simulation time: 0 hr 13 min 56 sec) 
Heartbeat CPU  0 instructions:  420000000 cycles:  326508768 heartbeat IPC: 1.38393 cumulative IPC: 1.13004 (Simulation time: 0 hr 13 min 58 sec) 
Heartbeat CPU  0 instructions:  421000001 cycles:  327113046 heartbeat IPC: 1.65487 cumulative IPC: 1.13116 (Simulation time: 0 hr 14 min 0 sec) 
Heartbeat CPU  0 instructions:  422000000 cycles:  328140561 heartbeat IPC: 0.97322 cumulative IPC: 1.13059 (Simulation time: 0 hr 14 min 2 sec) 
Heartbeat CPU  0 instructions:  423000000 cycles:  329200112 heartbeat IPC: 0.94380 cumulative IPC: 1.12990 (Simulation time: 0 hr 14 min 4 sec) 
Heartbeat CPU  0 instructions:  424000000 cycles:  330246037 heartbeat IPC: 0.95609 cumulative IPC: 1.12927 (Simulation time: 0 hr 14 min 6 sec) 
Heartbeat CPU  0 instructions:  425000001 cycles:  331350676 heartbeat IPC: 0.90527 cumulative IPC: 1.12841 (Simulation time: 0 hr 14 min 9 sec) 
Heartbeat CPU  0 instructions:  426000001 cycles:  332249860 heartbeat IPC: 1.11212 cumulative IPC: 1.12836 (Simulation time: 0 hr 14 min 11 sec) 
Heartbeat CPU  0 instructions:  427000000 cycles:  332855297 heartbeat IPC: 1.65170 cumulative IPC: 1.12945 (Simulation time: 0 hr 14 min 13 sec) 
Heartbeat CPU  0 instructions:  428000000 cycles:  333595819 heartbeat IPC: 1.35040 cumulative IPC: 1.13001 (Simulation time: 0 hr 14 min 15 sec) 
Heartbeat CPU  0 instructions:  429000002 cycles:  334671642 heartbeat IPC: 0.92952 cumulative IPC: 1.12927 (Simulation time: 0 hr 14 min 17 sec) 
Heartbeat CPU  0 instructions:  430000001 cycles:  335721270 heartbeat IPC: 0.95272 cumulative IPC: 1.12864 (Simulation time: 0 hr 14 min 19 sec) 
Heartbeat CPU  0 instructions:  431000001 cycles:  336752710 heartbeat IPC: 0.96952 cumulative IPC: 1.12808 (Simulation time: 0 hr 14 min 21 sec) 
Heartbeat CPU  0 instructions:  432000000 cycles:  337794878 heartbeat IPC: 0.95954 cumulative IPC: 1.12748 (Simulation time: 0 hr 14 min 23 sec) 
Heartbeat CPU  0 instructions:  433000003 cycles:  338507473 heartbeat IPC: 1.40333 cumulative IPC: 1.12815 (Simulation time: 0 hr 14 min 25 sec) 
Heartbeat CPU  0 instructions:  434000003 cycles:  339109574 heartbeat IPC: 1.66085 cumulative IPC: 1.12924 (Simulation time: 0 hr 14 min 28 sec) 
Heartbeat CPU  0 instructions:  435000000 cycles:  340096603 heartbeat IPC: 1.01314 cumulative IPC: 1.12885 (Simulation time: 0 hr 14 min 30 sec) 
Heartbeat CPU  0 instructions:  436000000 cycles:  341132014 heartbeat IPC: 0.96580 cumulative IPC: 1.12828 (Simulation time: 0 hr 14 min 32 sec) 
Heartbeat CPU  0 instructions:  437000002 cycles:  342188591 heartbeat IPC: 0.94645 cumulative IPC: 1.12764 (Simulation time: 0 hr 14 min 34 sec) 
Heartbeat CPU  0 instructions:  438000000 cycles:  343208877 heartbeat IPC: 0.98012 cumulative IPC: 1.12714 (Simulation time: 0 hr 14 min 36 sec) 
Heartbeat CPU  0 instructions:  439000002 cycles:  343914155 heartbeat IPC: 1.41788 cumulative IPC: 1.12782 (Simulation time: 0 hr 14 min 38 sec) 
Heartbeat CPU  0 instructions:  440000000 cycles:  344518570 heartbeat IPC: 1.65449 cumulative IPC: 1.12888 (Simulation time: 0 hr 14 min 40 sec) 
Heartbeat CPU  0 instructions:  441000002 cycles:  345492245 heartbeat IPC: 1.02704 cumulative IPC: 1.12855 (Simulation time: 0 hr 14 min 42 sec) 
Heartbeat CPU  0 instructions:  442000000 cycles:  346531615 heartbeat IPC: 0.96212 cumulative IPC: 1.12798 (Simulation time: 0 hr 14 min 44 sec) 
Heartbeat CPU  0 instructions:  443000002 cycles:  347583272 heartbeat IPC: 0.95088 cumulative IPC: 1.12737 (Simulation time: 0 hr 14 min 47 sec) 
Heartbeat CPU  0 instructions:  444000000 cycles:  348612477 heartbeat IPC: 0.97162 cumulative IPC: 1.12684 (Simulation time: 0 hr 14 min 49 sec) 
Heartbeat CPU  0 instructions:  445000000 cycles:  349292511 heartbeat IPC: 1.47051 cumulative IPC: 1.12760 (Simulation time: 0 hr 14 min 51 sec) 
Heartbeat CPU  0 instructions:  446000003 cycles:  349894239 heartbeat IPC: 1.66189 cumulative IPC: 1.12865 (Simulation time: 0 hr 14 min 53 sec) 
Heartbeat CPU  0 instructions:  447000003 cycles:  350906472 heartbeat IPC: 0.98791 cumulative IPC: 1.12819 (Simulation time: 0 hr 14 min 55 sec) 
Heartbeat CPU  0 instructions:  448000000 cycles:  351941396 heartbeat IPC: 0.96625 cumulative IPC: 1.12765 (Simulation time: 0 hr 14 min 57 sec) 
Heartbeat CPU  0 instructions:  449000001 cycles:  352966609 heartbeat IPC: 0.97541 cumulative IPC: 1.12714 (Simulation time: 0 hr 14 min 59 sec) 
Heartbeat CPU  0 instructions:  450000000 cycles:  354051962 heartbeat IPC: 0.92136 cumulative IPC: 1.12642 (Simulation time: 0 hr 15 min 1 sec) 
Heartbeat CPU  0 instructions:  451000003 cycles:  354904809 heartbeat IPC: 1.17255 cumulative IPC: 1.12655 (Simulation time: 0 hr 15 min 3 sec) 
Heartbeat CPU  0 instructions:  452000000 cycles:  355509126 heartbeat IPC: 1.65476 cumulative IPC: 1.12757 (Simulation time: 0 hr 15 min 5 sec) 
Heartbeat CPU  0 instructions:  453000000 cycles:  356265733 heartbeat IPC: 1.32169 cumulative IPC: 1.12804 (Simulation time: 0 hr 15 min 8 sec) 
Heartbeat CPU  0 instructions:  454000002 cycles:  357293769 heartbeat IPC: 0.97273 cumulative IPC: 1.12753 (Simulation time: 0 hr 15 min 10 sec) 
Heartbeat CPU  0 instructions:  455000002 cycles:  358332968 heartbeat IPC: 0.96228 cumulative IPC: 1.12699 (Simulation time: 0 hr 15 min 12 sec) 
Heartbeat CPU  0 instructions:  456000000 cycles:  359329911 heartbeat IPC: 1.00306 cumulative IPC: 1.12660 (Simulation time: 0 hr 15 min 14 sec) 
Heartbeat CPU  0 instructions:  457000003 cycles:  360336740 heartbeat IPC: 0.99322 cumulative IPC: 1.12617 (Simulation time: 0 hr 15 min 16 sec) 
Heartbeat CPU  0 instructions:  458000001 cycles:  361065511 heartbeat IPC: 1.37217 cumulative IPC: 1.12674 (Simulation time: 0 hr 15 min 18 sec) 
Heartbeat CPU  0 instructions:  459000000 cycles:  361668838 heartbeat IPC: 1.65747 cumulative IPC: 1.12774 (Simulation time: 0 hr 15 min 20 sec) 
Heartbeat CPU  0 instructions:  460000000 cycles:  362649552 heartbeat IPC: 1.01967 cumulative IPC: 1.12741 (Simulation time: 0 hr 15 min 22 sec) 
Heartbeat CPU  0 instructions:  461000002 cycles:  363695631 heartbeat IPC: 0.95595 cumulative IPC: 1.12685 (Simulation time: 0 hr 15 min 24 sec) 
Heartbeat CPU  0 instructions:  462000000 cycles:  364697158 heartbeat IPC: 0.99847 cumulative IPC: 1.12645 (Simulation time: 0 hr 15 min 27 sec) 
Heartbeat CPU  0 instructions:  463000003 cycles:  365722944 heartbeat IPC: 0.97487 cumulative IPC: 1.12597 (Simulation time: 0 hr 15 min 29 sec) 
Heartbeat CPU  0 instructions:  464000000 cycles:  366430658 heartbeat IPC: 1.41300 cumulative IPC: 1.12660 (Simulation time: 0 hr 15 min 31 sec) 
Heartbeat CPU  0 instructions:  465000000 cycles:  367035073 heartbeat IPC: 1.65449 cumulative IPC: 1.12758 (Simulation time: 0 hr 15 min 33 sec) 
Heartbeat CPU  0 instructions:  466000002 cycles:  367987092 heartbeat IPC: 1.05040 cumulative IPC: 1.12736 (Simulation time: 0 hr 15 min 35 sec) 
Heartbeat CPU  0 instructions:  467000002 cycles:  369040392 heartbeat IPC: 0.94940 cumulative IPC: 1.12678 (Simulation time: 0 hr 15 min 37 sec) 
Heartbeat CPU  0 instructions:  468000000 cycles:  370100195 heartbeat IPC: 0.94357 cumulative IPC: 1.12619 (Simulation time: 0 hr 15 min 39 sec) 
Heartbeat CPU  0 instructions:  469000001 cycles:  370982471 heartbeat IPC: 1.13343 cumulative IPC: 1.12621 (Simulation time: 0 hr 15 min 41 sec) 
Heartbeat CPU  0 instructions:  470000002 cycles:  371588409 heartbeat IPC: 1.65034 cumulative IPC: 1.12717 (Simulation time: 0 hr 15 min 43 sec) 
Heartbeat CPU  0 instructions:  471000001 cycles:  372289788 heartbeat IPC: 1.42576 cumulative IPC: 1.12781 (Simulation time: 0 hr 15 min 45 sec) 
Heartbeat CPU  0 instructions:  472000000 cycles:  373343309 heartbeat IPC: 0.94920 cumulative IPC: 1.12724 (Simulation time: 0 hr 15 min 48 sec) 
Heartbeat CPU  0 instructions:  473000003 cycles:  374379928 heartbeat IPC: 0.96468 cumulative IPC: 1.12673 (Simulation time: 0 hr 15 min 50 sec) 
Heartbeat CPU  0 instructions:  474000003 cycles:  375448332 heartbeat IPC: 0.93598 cumulative IPC: 1.12612 (Simulation time: 0 hr 15 min 52 sec) 
Heartbeat CPU  0 instructions:  475000003 cycles:  376298504 heartbeat IPC: 1.17623 cumulative IPC: 1.12625 (Simulation time: 0 hr 15 min 54 sec) 
Heartbeat CPU  0 instructions:  476000000 cycles:  376953292 heartbeat IPC: 1.52721 cumulative IPC: 1.12703 (Simulation time: 0 hr 15 min 56 sec) 
Heartbeat CPU  0 instructions:  477000000 cycles:  377555019 heartbeat IPC: 1.66188 cumulative IPC: 1.12800 (Simulation time: 0 hr 15 min 58 sec) 
Heartbeat CPU  0 instructions:  478000002 cycles:  378576454 heartbeat IPC: 0.97902 cumulative IPC: 1.12754 (Simulation time: 0 hr 16 min 0 sec) 
Heartbeat CPU  0 instructions:  479000003 cycles:  379616046 heartbeat IPC: 0.96192 cumulative IPC: 1.12703 (Simulation time: 0 hr 16 min 2 sec) 
Heartbeat CPU  0 instructions:  480000000 cycles:  380633987 heartbeat IPC: 0.98237 cumulative IPC: 1.12659 (Simulation time: 0 hr 16 min 5 sec) 
Heartbeat CPU  0 instructions:  481000002 cycles:  381400777 heartbeat IPC: 1.30414 cumulative IPC: 1.12700 (Simulation time: 0 hr 16 min 7 sec) 
Heartbeat CPU  0 instructions:  482000002 cycles:  382008660 heartbeat IPC: 1.64505 cumulative IPC: 1.12793 (Simulation time: 0 hr 16 min 9 sec) 
Heartbeat CPU  0 instructions:  483000003 cycles:  382905665 heartbeat IPC: 1.11482 cumulative IPC: 1.12789 (Simulation time: 0 hr 16 min 11 sec) 
Heartbeat CPU  0 instructions:  484000000 cycles:  383919109 heartbeat IPC: 0.98673 cumulative IPC: 1.12747 (Simulation time: 0 hr 16 min 13 sec) 
Heartbeat CPU  0 instructions:  485000003 cycles:  384939833 heartbeat IPC: 0.97970 cumulative IPC: 1.12703 (Simulation time: 0 hr 16 min 15 sec) 
Heartbeat CPU  0 instructions:  486000002 cycles:  386002109 heartbeat IPC: 0.94137 cumulative IPC: 1.12645 (Simulation time: 0 hr 16 min 17 sec) 
Heartbeat CPU  0 instructions:  487000002 cycles:  386939445 heartbeat IPC: 1.06685 cumulative IPC: 1.12629 (Simulation time: 0 hr 16 min 19 sec) 
Heartbeat CPU  0 instructions:  488000000 cycles:  387547477 heartbeat IPC: 1.64465 cumulative IPC: 1.12721 (Simulation time: 0 hr 16 min 21 sec) 
Heartbeat CPU  0 instructions:  489000000 cycles:  388255177 heartbeat IPC: 1.41303 cumulative IPC: 1.12779 (Simulation time: 0 hr 16 min 23 sec) 
Heartbeat CPU  0 instructions:  490000000 cycles:  389308501 heartbeat IPC: 0.94938 cumulative IPC: 1.12725 (Simulation time: 0 hr 16 min 26 sec) 
Heartbeat CPU  0 instructions:  491000002 cycles:  390356518 heartbeat IPC: 0.95418 cumulative IPC: 1.12673 (Simulation time: 0 hr 16 min 28 sec) 
Heartbeat CPU  0 instructions:  492000000 cycles:  391412311 heartbeat IPC: 0.94715 cumulative IPC: 1.12618 (Simulation time: 0 hr 16 min 30 sec) 
Heartbeat CPU  0 instructions:  493000002 cycles:  392429024 heartbeat IPC: 0.98356 cumulative IPC: 1.12577 (Simulation time: 0 hr 16 min 32 sec) 
Heartbeat CPU  0 instructions:  494000000 cycles:  393077462 heartbeat IPC: 1.54216 cumulative IPC: 1.12654 (Simulation time: 0 hr 16 min 34 sec) 
Heartbeat CPU  0 instructions:  495000001 cycles:  393680428 heartbeat IPC: 1.65847 cumulative IPC: 1.12746 (Simulation time: 0 hr 16 min 36 sec) 
Heartbeat CPU  0 instructions:  496000000 cycles:  394737504 heartbeat IPC: 0.94600 cumulative IPC: 1.12691 (Simulation time: 0 hr 16 min 38 sec) 
Heartbeat CPU  0 instructions:  497000001 cycles:  395797546 heartbeat IPC: 0.94336 cumulative IPC: 1.12636 (Simulation time: 0 hr 16 min 40 sec) 
Heartbeat CPU  0 instructions:  498000000 cycles:  396843646 heartbeat IPC: 0.95593 cumulative IPC: 1.12585 (Simulation time: 0 hr 16 min 43 sec) 
Heartbeat CPU  0 instructions:  499000002 cycles:  397871906 heartbeat IPC: 0.97252 cumulative IPC: 1.12541 (Simulation time: 0 hr 16 min 45 sec) 
Heartbeat CPU  0 instructions:  500000000 cycles:  398622411 heartbeat IPC: 1.33243 cumulative IPC: 1.12585 (Simulation time: 0 hr 16 min 47 sec) 
Heartbeat CPU  0 instructions:  501000002 cycles:  399224475 heartbeat IPC: 1.66096 cumulative IPC: 1.12675 (Simulation time: 0 hr 16 min 49 sec) 
Heartbeat CPU  0 instructions:  502000000 cycles:  400215705 heartbeat IPC: 1.00885 cumulative IPC: 1.12642 (Simulation time: 0 hr 16 min 51 sec) 
Heartbeat CPU  0 instructions:  503000000 cycles:  401238932 heartbeat IPC: 0.97730 cumulative IPC: 1.12600 (Simulation time: 0 hr 16 min 53 sec) 
Heartbeat CPU  0 instructions:  504000000 cycles:  402292977 heartbeat IPC: 0.94873 cumulative IPC: 1.12548 (Simulation time: 0 hr 16 min 55 sec) 
Heartbeat CPU  0 instructions:  505000000 cycles:  403373429 heartbeat IPC: 0.92554 cumulative IPC: 1.12488 (Simulation time: 0 hr 16 min 57 sec) 
Heartbeat CPU  0 instructions:  506000001 cycles:  404357590 heartbeat IPC: 1.01609 cumulative IPC: 1.12458 (Simulation time: 0 hr 16 min 59 sec) 
Heartbeat CPU  0 instructions:  507000000 cycles:  404963839 heartbeat IPC: 1.64949 cumulative IPC: 1.12546 (Simulation time: 0 hr 17 min 2 sec) 
Heartbeat CPU  0 instructions:  508000000 cycles:  405712450 heartbeat IPC: 1.33581 cumulative IPC: 1.12590 (Simulation time: 0 hr 17 min 4 sec) 
Heartbeat CPU  0 instructions:  509000003 cycles:  406790707 heartbeat IPC: 0.92743 cumulative IPC: 1.12531 (Simulation time: 0 hr 17 min 6 sec) 
Heartbeat CPU  0 instructions:  510000002 cycles:  407818535 heartbeat IPC: 0.97292 cumulative IPC: 1.12488 (Simulation time: 0 hr 17 min 8 sec) 
Heartbeat CPU  0 instructions:  511000001 cycles:  408858836 heartbeat IPC: 0.96126 cumulative IPC: 1.12441 (Simulation time: 0 hr 17 min 10 sec) 
Heartbeat CPU  0 instructions:  512000000 cycles:  410020954 heartbeat IPC: 0.86050 cumulative IPC: 1.12357 (Simulation time: 0 hr 17 min 12 sec) 
Heartbeat CPU  0 instructions:  513000000 cycles:  410860573 heartbeat IPC: 1.19102 cumulative IPC: 1.12373 (Simulation time: 0 hr 17 min 14 sec) 
Heartbeat CPU  0 instructions:  514000000 cycles:  411468241 heartbeat IPC: 1.64564 cumulative IPC: 1.12459 (Simulation time: 0 hr 17 min 16 sec) 
Heartbeat CPU  0 instructions:  515000000 cycles:  412300927 heartbeat IPC: 1.20093 cumulative IPC: 1.12476 (Simulation time: 0 hr 17 min 19 sec) 
Heartbeat CPU  0 instructions:  516000000 cycles:  413360761 heartbeat IPC: 0.94354 cumulative IPC: 1.12424 (Simulation time: 0 hr 17 min 21 sec) 
Heartbeat CPU  0 instructions:  517000000 cycles:  414361661 heartbeat IPC: 0.99910 cumulative IPC: 1.12391 (Simulation time: 0 hr 17 min 23 sec) 
Heartbeat CPU  0 instructions:  518000003 cycles:  415398755 heartbeat IPC: 0.96424 cumulative IPC: 1.12346 (Simulation time: 0 hr 17 min 25 sec) 
Heartbeat CPU  0 instructions:  519000002 cycles:  416512481 heartbeat IPC: 0.89789 cumulative IPC: 1.12279 (Simulation time: 0 hr 17 min 27 sec) 
Heartbeat CPU  0 instructions:  520000000 cycles:  417320251 heartbeat IPC: 1.23797 cumulative IPC: 1.12304 (Simulation time: 0 hr 17 min 29 sec) 
Heartbeat CPU  0 instructions:  521000001 cycles:  417927097 heartbeat IPC: 1.64787 cumulative IPC: 1.12389 (Simulation time: 0 hr 17 min 31 sec) 
Heartbeat CPU  0 instructions:  522000001 cycles:  418813357 heartbeat IPC: 1.12834 cumulative IPC: 1.12390 (Simulation time: 0 hr 17 min 33 sec) 
Heartbeat CPU  0 instructions:  523000000 cycles:  419849039 heartbeat IPC: 0.96555 cumulative IPC: 1.12346 (Simulation time: 0 hr 17 min 35 sec) 
Heartbeat CPU  0 instructions:  524000000 cycles:  420836304 heartbeat IPC: 1.01290 cumulative IPC: 1.12317 (Simulation time: 0 hr 17 min 38 sec) 
Heartbeat CPU  0 instructions:  525000001 cycles:  421886612 heartbeat IPC: 0.95210 cumulative IPC: 1.12270 (Simulation time: 0 hr 17 min 40 sec) 
Heartbeat CPU  0 instructions:  526000002 cycles:  422959626 heartbeat IPC: 0.93196 cumulative IPC: 1.12216 (Simulation time: 0 hr 17 min 42 sec) 
Heartbeat CPU  0 instructions:  527000002 cycles:  423741449 heartbeat IPC: 1.27906 cumulative IPC: 1.12248 (Simulation time: 0 hr 17 min 44 sec) 
Heartbeat CPU  0 instructions:  528000000 cycles:  424349249 heartbeat IPC: 1.64527 cumulative IPC: 1.12331 (Simulation time: 0 hr 17 min 46 sec) 
Heartbeat CPU  0 instructions:  529000003 cycles:  425285758 heartbeat IPC: 1.06780 cumulative IPC: 1.12318 (Simulation time: 0 hr 17 min 48 sec) 
Heartbeat CPU  0 instructions:  530000003 cycles:  426306977 heartbeat IPC: 0.97922 cumulative IPC: 1.12279 (Simulation time: 0 hr 17 min 50 sec) 
Heartbeat CPU  0 instructions:  531000002 cycles:  427301415 heartbeat IPC: 1.00559 cumulative IPC: 1.12249 (Simulation time: 0 hr 17 min 52 sec) 
Heartbeat CPU  0 instructions:  532000000 cycles:  428349082 heartbeat IPC: 0.95450 cumulative IPC: 1.12203 (Simulation time: 0 hr 17 min 55 sec) 
Heartbeat CPU  0 instructions:  533000000 cycles:  429473097 heartbeat IPC: 0.88967 cumulative IPC: 1.12136 (Simulation time: 0 hr 17 min 57 sec) 
[...]
Heartbeat CPU  0 instructions:  487000000 cycles: 2422786343 heartbeat IPC: 0.53321 cumulative IPC: 0.16724 (Simulation time: 0 hr 33 min 58 sec) 
Heartbeat CPU  0 instructions:  488000000 cycles: 2424493121 heartbeat IPC: 0.58590 cumulative IPC: 0.16755 (Simulation time: 0 hr 34 min 0 sec) 
Heartbeat CPU  0 instructions:  489000003 cycles: 2426544035 heartbeat IPC: 0.48759 cumulative IPC: 0.16783 (Simulation time: 0 hr 34 min 4 sec) 
Heartbeat CPU  0 instructions:  490000001 cycles: 2428527090 heartbeat IPC: 0.50427 cumulative IPC: 0.16812 (Simulation time: 0 hr 34 min 6 sec) 
Heartbeat CPU  0 instructions:  491000002 cycles: 2430374207 heartbeat IPC: 0.54138 cumulative IPC: 0.16842 (Simulation time: 0 hr 34 min 9 sec) 
Heartbeat CPU  0 instructions:  492000000 cycles: 2432255391 heartbeat IPC: 0.53158 cumulative IPC: 0.16871 (Simulation time: 0 hr 34 min 12 sec) 
Heartbeat CPU  0 instructions:  493000000 cycles: 2434125792 heartbeat IPC: 0.53464 cumulative IPC: 0.16901 (Simulation time: 0 hr 34 min 15 sec) 
Heartbeat CPU  0 instructions:  494000003 cycles: 2436040372 heartbeat IPC: 0.52231 cumulative IPC: 0.16930 (Simulation time: 0 hr 34 min 18 sec) 
Heartbeat CPU  0 instructions:  495000003 cycles: 2437924099 heartbeat IPC: 0.53086 cumulative IPC: 0.16959 (Simulation time: 0 hr 34 min 21 sec) 
Heartbeat CPU  0 instructions:  496000000 cycles: 2439824390 heartbeat IPC: 0.52623 cumulative IPC: 0.16988 (Simulation time: 0 hr 34 min 23 sec) 
Heartbeat CPU  0 instructions:  497000001 cycles: 2441711579 heartbeat IPC: 0.52989 cumulative IPC: 0.17017 (Simulation time: 0 hr 34 min 26 sec) 
Heartbeat CPU  0 instructions:  498000000 cycles: 2443598696 heartbeat IPC: 0.52991 cumulative IPC: 0.17046 (Simulation time: 0 hr 34 min 29 sec) 
Heartbeat CPU  0 instructions:  499000002 cycles: 2445518656 heartbeat IPC: 0.52085 cumulative IPC: 0.17075 (Simulation time: 0 hr 34 min 32 sec) 
Heartbeat CPU  0 instructions:  500000000 cycles: 2447592844 heartbeat IPC: 0.48212 cumulative IPC: 0.17103 (Simulation time: 0 hr 34 min 35 sec) 
Heartbeat CPU  0 instructions:  501000000 cycles: 2449748424 heartbeat IPC: 0.46391 cumulative IPC: 0.17130 (Simulation time: 0 hr 34 min 38 sec) 
Heartbeat CPU  0 instructions:  502000002 cycles: 2451622070 heartbeat IPC: 0.53372 cumulative IPC: 0.17159 (Simulation time: 0 hr 34 min 41 sec) 
Heartbeat CPU  0 instructions:  503000001 cycles: 2453491851 heartbeat IPC: 0.53482 cumulative IPC: 0.17188 (Simulation time: 0 hr 34 min 44 sec) 
Heartbeat CPU  0 instructions:  504000000 cycles: 2455629400 heartbeat IPC: 0.46783 cumulative IPC: 0.17214 (Simulation time: 0 hr 34 min 47 sec) 
Heartbeat CPU  0 instructions:  505000003 cycles: 2457944305 heartbeat IPC: 0.43198 cumulative IPC: 0.17240 (Simulation time: 0 hr 34 min 51 sec) 
Heartbeat CPU  0 instructions:  506000000 cycles: 2459970502 heartbeat IPC: 0.49353 cumulative IPC: 0.17268 (Simulation time: 0 hr 34 min 54 sec) 
Heartbeat CPU  0 instructions:  507000003 cycles: 2462011538 heartbeat IPC: 0.48995 cumulative IPC: 0.17295 (Simulation time: 0 hr 34 min 57 sec) 
Heartbeat CPU  0 instructions:  508000000 cycles: 2463985565 heartbeat IPC: 0.50658 cumulative IPC: 0.17323 (Simulation time: 0 hr 35 min 0 sec) 
Heartbeat CPU  0 instructions:  509000000 cycles: 2465939679 heartbeat IPC: 0.51174 cumulative IPC: 0.17351 (Simulation time: 0 hr 35 min 3 sec) 
Heartbeat CPU  0 instructions:  510000000 cycles: 2467857505 heartbeat IPC: 0.52142 cumulative IPC: 0.17380 (Simulation time: 0 hr 35 min 6 sec) 
Heartbeat CPU  0 instructions:  511000000 cycles: 2469759512 heartbeat IPC: 0.52576 cumulative IPC: 0.17408 (Simulation time: 0 hr 35 min 8 sec) 
Heartbeat CPU  0 instructions:  512000000 cycles: 2471665798 heartbeat IPC: 0.52458 cumulative IPC: 0.17436 (Simulation time: 0 hr 35 min 11 sec) 
Heartbeat CPU  0 instructions:  513000003 cycles: 2473593627 heartbeat IPC: 0.51872 cumulative IPC: 0.17464 (Simulation time: 0 hr 35 min 14 sec) 
Heartbeat CPU  0 instructions:  514000000 cycles: 2475724034 heartbeat IPC: 0.46939 cumulative IPC: 0.17491 (Simulation time: 0 hr 35 min 17 sec) 
Heartbeat CPU  0 instructions:  515000001 cycles: 2477679988 heartbeat IPC: 0.51126 cumulative IPC: 0.17519 (Simulation time: 0 hr 35 min 21 sec) 
Heartbeat CPU  0 instructions:  516000000 cycles: 2479655967 heartbeat IPC: 0.50608 cumulative IPC: 0.17546 (Simulation time: 0 hr 35 min 24 sec) 
Heartbeat CPU  0 instructions:  517000002 cycles: 2481837242 heartbeat IPC: 0.45845 cumulative IPC: 0.17572 (Simulation time: 0 hr 35 min 27 sec) 
Heartbeat CPU  0 instructions:  518000000 cycles: 2483783036 heartbeat IPC: 0.51393 cumulative IPC: 0.17600 (Simulation time: 0 hr 35 min 30 sec) 
Heartbeat CPU  0 instructions:  519000001 cycles: 2485685656 heartbeat IPC: 0.52559 cumulative IPC: 0.17628 (Simulation time: 0 hr 35 min 32 sec) 
Heartbeat CPU  0 instructions:  520000000 cycles: 2487567146 heartbeat IPC: 0.53149 cumulative IPC: 0.17656 (Simulation time: 0 hr 35 min 35 sec) 
Heartbeat CPU  0 instructions:  521000002 cycles: 2489285883 heartbeat IPC: 0.58182 cumulative IPC: 0.17685 (Simulation time: 0 hr 35 min 38 sec) 
Heartbeat CPU  0 instructions:  522000001 cycles: 2491154991 heartbeat IPC: 0.53501 cumulative IPC: 0.17713 (Simulation time: 0 hr 35 min 41 sec) 
Heartbeat CPU  0 instructions:  523000001 cycles: 2493061233 heartbeat IPC: 0.52459 cumulative IPC: 0.17741 (Simulation time: 0 hr 35 min 43 sec) 
Heartbeat CPU  0 instructions:  524000000 cycles: 2494988852 heartbeat IPC: 0.51877 cumulative IPC: 0.17769 (Simulation time: 0 hr 35 min 46 sec) 
Heartbeat CPU  0 instructions:  525000001 cycles: 2496892653 heartbeat IPC: 0.52527 cumulative IPC: 0.17796 (Simulation time: 0 hr 35 min 49 sec) 
Heartbeat CPU  0 instructions:  526000000 cycles: 2498864722 heartbeat IPC: 0.50708 cumulative IPC: 0.17824 (Simulation time: 0 hr 35 min 52 sec) 
Heartbeat CPU  0 instructions:  527000001 cycles: 2500820643 heartbeat IPC: 0.51127 cumulative IPC: 0.17851 (Simulation time: 0 hr 35 min 55 sec) 
Heartbeat CPU  0 instructions:  528000000 cycles: 2502814224 heartbeat IPC: 0.50161 cumulative IPC: 0.17878 (Simulation time: 0 hr 35 min 58 sec) 
Heartbeat CPU  0 instructions:  529000000 cycles: 2504661209 heartbeat IPC: 0.54142 cumulative IPC: 0.17906 (Simulation time: 0 hr 36 min 1 sec) 
Heartbeat CPU  0 instructions:  530000001 cycles: 2506578840 heartbeat IPC: 0.52148 cumulative IPC: 0.17933 (Simulation time: 0 hr 36 min 4 sec) 
Heartbeat CPU  0 instructions:  531000001 cycles: 2508471111 heartbeat IPC: 0.52847 cumulative IPC: 0.17961 (Simulation time: 0 hr 36 min 7 sec) 
Heartbeat CPU  0 instructions:  532000000 cycles: 2510495964 heartbeat IPC: 0.49386 cumulative IPC: 0.17987 (Simulation time: 0 hr 36 min 10 sec) 
Heartbeat CPU  0 instructions:  533000000 cycles: 2512259450 heartbeat IPC: 0.56706 cumulative IPC: 0.18015 (Simulation time: 0 hr 36 min 13 sec) 
Heartbeat CPU  0 instructions:  534000000 cycles: 2514388394 heartbeat IPC: 0.46972 cumulative IPC: 0.18041 (Simulation time: 0 hr 36 min 16 sec) 
Heartbeat CPU  0 instructions:  535000002 cycles: 2516063764 heartbeat IPC: 0.59688 cumulative IPC: 0.18070 (Simulation time: 0 hr 36 min 18 sec) 
Heartbeat CPU  0 instructions:  536000000 cycles: 2517866112 heartbeat IPC: 0.55483 cumulative IPC: 0.18098 (Simulation time: 0 hr 36 min 21 sec) 
Heartbeat CPU  0 instructions:  537000000 cycles: 2519655201 heartbeat IPC: 0.55894 cumulative IPC: 0.18126 (Simulation time: 0 hr 36 min 24 sec) 
Heartbeat CPU  0 instructions:  538000000 cycles: 2521424939 heartbeat IPC: 0.56506 cumulative IPC: 0.18154 (Simulation time: 0 hr 36 min 27 sec) 
Heartbeat CPU  0 instructions:  539000000 cycles: 2523221622 heartbeat IPC: 0.55658 cumulative IPC: 0.18182 (Simulation time: 0 hr 36 min 30 sec) 
Heartbeat CPU  0 instructions:  540000000 cycles: 2524874748 heartbeat IPC: 0.60491 cumulative IPC: 0.18211 (Simulation time: 0 hr 36 min 32 sec) 
Heartbeat CPU  0 instructions:  541000003 cycles: 2526879534 heartbeat IPC: 0.49881 cumulative IPC: 0.18237 (Simulation time: 0 hr 36 min 35 sec) 
Heartbeat CPU  0 instructions:  542000001 cycles: 2528832037 heartbeat IPC: 0.51216 cumulative IPC: 0.18264 (Simulation time: 0 hr 36 min 38 sec) 
Heartbeat CPU  0 instructions:  543000000 cycles: 2530745361 heartbeat IPC: 0.52265 cumulative IPC: 0.18291 (Simulation time: 0 hr 36 min 41 sec) 
Heartbeat CPU  0 instructions:  544000000 cycles: 2532546258 heartbeat IPC: 0.55528 cumulative IPC: 0.18318 (Simulation time: 0 hr 36 min 44 sec) 
Heartbeat CPU  0 instructions:  545000000 cycles: 2534475462 heartbeat IPC: 0.51835 cumulative IPC: 0.18345 (Simulation time: 0 hr 36 min 47 sec) 
Heartbeat CPU  0 instructions:  546000003 cycles: 2536438585 heartbeat IPC: 0.50939 cumulative IPC: 0.18372 (Simulation time: 0 hr 36 min 50 sec) 
Heartbeat CPU  0 instructions:  547000000 cycles: 2538246770 heartbeat IPC: 0.55304 cumulative IPC: 0.18399 (Simulation time: 0 hr 36 min 53 sec) 
Heartbeat CPU  0 instructions:  548000000 cycles: 2540082525 heartbeat IPC: 0.54474 cumulative IPC: 0.18426 (Simulation time: 0 hr 36 min 55 sec) 
Heartbeat CPU  0 instructions:  549000000 cycles: 2541952587 heartbeat IPC: 0.53474 cumulative IPC: 0.18453 (Simulation time: 0 hr 36 min 58 sec) 
Heartbeat CPU  0 instructions:  550000000 cycles: 2543936640 heartbeat IPC: 0.50402 cumulative IPC: 0.18479 (Simulation time: 0 hr 37 min 1 sec) 
Heartbeat CPU  0 instructions:  551000003 cycles: 2545787150 heartbeat IPC: 0.54039 cumulative IPC: 0.18506 (Simulation time: 0 hr 37 min 4 sec) 
Heartbeat CPU  0 instructions:  552000000 cycles: 2547618891 heartbeat IPC: 0.54593 cumulative IPC: 0.18533 (Simulation time: 0 hr 37 min 7 sec) 
Heartbeat CPU  0 instructions:  553000000 cycles: 2549497671 heartbeat IPC: 0.53226 cumulative IPC: 0.18560 (Simulation time: 0 hr 37 min 10 sec) 
Heartbeat CPU  0 instructions:  554000002 cycles: 2551426342 heartbeat IPC: 0.51849 cumulative IPC: 0.18586 (Simulation time: 0 hr 37 min 12 sec) 
Heartbeat CPU  0 instructions:  555000002 cycles: 2553359309 heartbeat IPC: 0.51734 cumulative IPC: 0.18613 (Simulation time: 0 hr 37 min 15 sec) 
Heartbeat CPU  0 instructions:  556000000 cycles: 2555150240 heartbeat IPC: 0.55837 cumulative IPC: 0.18640 (Simulation time: 0 hr 37 min 18 sec) 
Heartbeat CPU  0 instructions:  557000001 cycles: 2557060781 heartbeat IPC: 0.52341 cumulative IPC: 0.18666 (Simulation time: 0 hr 37 min 21 sec) 
Heartbeat CPU  0 instructions:  558000003 cycles: 2558928641 heartbeat IPC: 0.53537 cumulative IPC: 0.18693 (Simulation time: 0 hr 37 min 24 sec) 
Heartbeat CPU  0 instructions:  559000002 cycles: 2560640091 heartbeat IPC: 0.58430 cumulative IPC: 0.18720 (Simulation time: 0 hr 37 min 26 sec) 
Heartbeat CPU  0 instructions:  560000000 cycles: 2562531593 heartbeat IPC: 0.52868 cumulative IPC: 0.18747 (Simulation time: 0 hr 37 min 29 sec) 
Heartbeat CPU  0 instructions:  561000003 cycles: 2564449150 heartbeat IPC: 0.52150 cumulative IPC: 0.18773 (Simulation time: 0 hr 37 min 32 sec) 
Heartbeat CPU  0 instructions:  562000001 cycles: 2566341169 heartbeat IPC: 0.52853 cumulative IPC: 0.18799 (Simulation time: 0 hr 37 min 34 sec) 
Heartbeat CPU  0 instructions:  563000001 cycles: 2568250165 heartbeat IPC: 0.52384 cumulative IPC: 0.18825 (Simulation time: 0 hr 37 min 37 sec) 
Heartbeat CPU  0 instructions:  564000000 cycles: 2570168889 heartbeat IPC: 0.52118 cumulative IPC: 0.18851 (Simulation time: 0 hr 37 min 40 sec) 
Heartbeat CPU  0 instructions:  565000002 cycles: 2572057816 heartbeat IPC: 0.52940 cumulative IPC: 0.18877 (Simulation time: 0 hr 37 min 43 sec) 
Heartbeat CPU  0 instructions:  566000003 cycles: 2574065447 heartbeat IPC: 0.49810 cumulative IPC: 0.18902 (Simulation time: 0 hr 37 min 46 sec) 
Heartbeat CPU  0 instructions:  567000000 cycles: 2575945135 heartbeat IPC: 0.53200 cumulative IPC: 0.18929 (Simulation time: 0 hr 37 min 49 sec) 
Heartbeat CPU  0 instructions:  568000000 cycles: 2577802154 heartbeat IPC: 0.53850 cumulative IPC: 0.18955 (Simulation time: 0 hr 37 min 51 sec) 
Heartbeat CPU  0 instructions:  569000001 cycles: 2579716548 heartbeat IPC: 0.52236 cumulative IPC: 0.18981 (Simulation time: 0 hr 37 min 54 sec) 
Heartbeat CPU  0 instructions:  570000001 cycles: 2581714683 heartbeat IPC: 0.50047 cumulative IPC: 0.19006 (Simulation time: 0 hr 37 min 57 sec) 
Heartbeat CPU  0 instructions:  571000000 cycles: 2583529291 heartbeat IPC: 0.55108 cumulative IPC: 0.19032 (Simulation time: 0 hr 38 min 0 sec) 
Heartbeat CPU  0 instructions:  572000000 cycles: 2585480110 heartbeat IPC: 0.51261 cumulative IPC: 0.19058 (Simulation time: 0 hr 38 min 3 sec) 
Heartbeat CPU  0 instructions:  573000001 cycles: 2587319469 heartbeat IPC: 0.54367 cumulative IPC: 0.19084 (Simulation time: 0 hr 38 min 5 sec) 
Heartbeat CPU  0 instructions:  574000000 cycles: 2589215147 heartbeat IPC: 0.52752 cumulative IPC: 0.19109 (Simulation time: 0 hr 38 min 8 sec) 
Heartbeat CPU  0 instructions:  575000003 cycles: 2591120651 heartbeat IPC: 0.52480 cumulative IPC: 0.19135 (Simulation time: 0 hr 38 min 11 sec) 
Heartbeat CPU  0 instructions:  576000000 cycles: 2593029859 heartbeat IPC: 0.52378 cumulative IPC: 0.19161 (Simulation time: 0 hr 38 min 14 sec) 
Heartbeat CPU  0 instructions:  577000000 cycles: 2594777410 heartbeat IPC: 0.57223 cumulative IPC: 0.19187 (Simulation time: 0 hr 38 min 16 sec) 
Heartbeat CPU  0 instructions:  578000002 cycles: 2596658962 heartbeat IPC: 0.53148 cumulative IPC: 0.19213 (Simulation time: 0 hr 38 min 19 sec) 
Heartbeat CPU  0 instructions:  579000003 cycles: 2598565598 heartbeat IPC: 0.52448 cumulative IPC: 0.19239 (Simulation time: 0 hr 38 min 22 sec) 
Heartbeat CPU  0 instructions:  580000000 cycles: 2600403084 heartbeat IPC: 0.54422 cumulative IPC: 0.19264 (Simulation time: 0 hr 38 min 24 sec) 
Heartbeat CPU  0 instructions:  581000001 cycles: 2602121445 heartbeat IPC: 0.58195 cumulative IPC: 0.19291 (Simulation time: 0 hr 38 min 27 sec) 
Heartbeat CPU  0 instructions:  582000000 cycles: 2603984901 heartbeat IPC: 0.53664 cumulative IPC: 0.19317 (Simulation time: 0 hr 38 min 30 sec) 
Heartbeat CPU  0 instructions:  583000000 cycles: 2605909753 heartbeat IPC: 0.51952 cumulative IPC: 0.19342 (Simulation time: 0 hr 38 min 32 sec) 
Heartbeat CPU  0 instructions:  584000000 cycles: 2607865657 heartbeat IPC: 0.51127 cumulative IPC: 0.19367 (Simulation time: 0 hr 38 min 35 sec) 
Heartbeat CPU  0 instructions:  585000001 cycles: 2609756587 heartbeat IPC: 0.52884 cumulative IPC: 0.19392 (Simulation time: 0 hr 38 min 38 sec) 
Heartbeat CPU  0 instructions:  586000001 cycles: 2611604160 heartbeat IPC: 0.54125 cumulative IPC: 0.19418 (Simulation time: 0 hr 38 min 41 sec) 
Heartbeat CPU  0 instructions:  587000001 cycles: 2613610436 heartbeat IPC: 0.49844 cumulative IPC: 0.19442 (Simulation time: 0 hr 38 min 44 sec) 
Heartbeat CPU  0 instructions:  588000000 cycles: 2615584865 heartbeat IPC: 0.50648 cumulative IPC: 0.19467 (Simulation time: 0 hr 38 min 47 sec) 
Heartbeat CPU  0 instructions:  589000002 cycles: 2617692130 heartbeat IPC: 0.47455 cumulative IPC: 0.19490 (Simulation time: 0 hr 38 min 50 sec) 
Heartbeat CPU  0 instructions:  590000001 cycles: 2619463511 heartbeat IPC: 0.56453 cumulative IPC: 0.19516 (Simulation time: 0 hr 38 min 53 sec) 
Heartbeat CPU  0 instructions:  591000001 cycles: 2621347633 heartbeat IPC: 0.53075 cumulative IPC: 0.19542 (Simulation time: 0 hr 38 min 55 sec) 
Heartbeat CPU  0 instructions:  592000000 cycles: 2623249457 heartbeat IPC: 0.52581 cumulative IPC: 0.19567 (Simulation time: 0 hr 38 min 58 sec) 
Heartbeat CPU  0 instructions:  593000000 cycles: 2625138983 heartbeat IPC: 0.52923 cumulative IPC: 0.19592 (Simulation time: 0 hr 39 min 1 sec) 
Heartbeat CPU  0 instructions:  594000003 cycles: 2627022938 heartbeat IPC: 0.53080 cumulative IPC: 0.19617 (Simulation time: 0 hr 39 min 4 sec) 
Heartbeat CPU  0 instructions:  595000000 cycles: 2628855072 heartbeat IPC: 0.54581 cumulative IPC: 0.19642 (Simulation time: 0 hr 39 min 6 sec) 
Heartbeat CPU  0 instructions:  596000000 cycles: 2630663012 heartbeat IPC: 0.55312 cumulative IPC: 0.19668 (Simulation time: 0 hr 39 min 9 sec) 
Heartbeat CPU  0 instructions:  597000001 cycles: 2632571372 heartbeat IPC: 0.52401 cumulative IPC: 0.19692 (Simulation time: 0 hr 39 min 12 sec) 
Heartbeat CPU  0 instructions:  598000001 cycles: 2634412099 heartbeat IPC: 0.54326 cumulative IPC: 0.19718 (Simulation time: 0 hr 39 min 15 sec) 
Heartbeat CPU  0 instructions:  599000003 cycles: 2636183434 heartbeat IPC: 0.56455 cumulative IPC: 0.19743 (Simulation time: 0 hr 39 min 17 sec) 
Heartbeat CPU  0 instructions:  600000000 cycles: 2638055050 heartbeat IPC: 0.53430 cumulative IPC: 0.19768 (Simulation time: 0 hr 39 min 20 sec) 
Finished CPU 0 instructions: 500000000 cycles: 2529288070 cumulative IPC: 0.19768 (Simulation time: 0 hr 39 min 20 sec) 

ChampSim completed all CPUs

[ROI Statistics]
Core_0_instructions 500000000
Core_0_cycles 2529288070
Core_0_IPC 0.19768

Core_0_branch_prediction_accuracy 95.55097
Core_0_branch_MPKI 5.00272
Core_0_average_ROB_occupancy_at_mispredict 120.35089

Core_0_L1D_total_access 237289207
Core_0_L1D_total_hit 200353155
Core_0_L1D_total_miss 36936052
Core_0_L1D_loads 154734393
Core_0_L1D_load_hit 133802786
Core_0_L1D_load_miss 20931607
Core_0_L1D_RFOs 82554814
Core_0_L1D_RFO_hit 66550369
Core_0_L1D_RFO_miss 16004445
Core_0_L1D_prefetches 0
Core_0_L1D_prefetch_hit 0
Core_0_L1D_prefetch_miss 0
Core_0_L1D_writebacks 0
Core_0_L1D_writeback_hit 0
Core_0_L1D_writeback_miss 0
Core_0_L1D_prefetch_requested 0
Core_0_L1D_prefetch_issued 0
Core_0_L1D_prefetch_useful 0
Core_0_L1D_prefetch_useless 0
Core_0_L1D_prefetch_late 0
Core_0_L1D_average_miss_latency 245.16317

Core_0_L1I_total_access 123126591
Core_0_L1I_total_hit 123126365
Core_0_L1I_total_miss 226
Core_0_L1I_loads 123126591
Core_0_L1I_load_hit 123126365
Core_0_L1I_load_miss 226
Core_0_L1I_RFOs 0
Core_0_L1I_RFO_hit 0
Core_0_L1I_RFO_miss 0
Core_0_L1I_prefetches 0
Core_0_L1I_prefetch_hit 0
Core_0_L1I_prefetch_miss 0
Core_0_L1I_writebacks 0
Core_0_L1I_writeback_hit 0
Core_0_L1I_writeback_miss 0
Core_0_L1I_prefetch_requested 0
Core_0_L1I_prefetch_issued 0
Core_0_L1I_prefetch_useful 0
Core_0_L1I_prefetch_useless 0
Core_0_L1I_prefetch_late 0
Core_0_L1I_average_miss_latency 268.15044

Core_0_L2C_total_access 88777570
Core_0_L2C_total_hit 55574558
Core_0_L2C_total_miss 33203012
Core_0_L2C_loads 20931460
Core_0_L2C_load_hit 11908860
Core_0_L2C_load_miss 9022600
Core_0_L2C_RFOs 16004438
Core_0_L2C_RFO_hit 196250
Core_0_L2C_RFO_miss 15808188
Core_0_L2C_prefetches 19733747
Core_0_L2C_prefetch_hit 11368022
Core_0_L2C_prefetch_miss 8365725
Core_0_L2C_writebacks 32107925
Core_0_L2C_writeback_hit 32101426
Core_0_L2C_writeback_miss 6499
Core_0_L2C_prefetch_requested 34932910
Core_0_L2C_prefetch_issued 34932910
Core_0_L2C_prefetch_useful 10055567
Core_0_L2C_prefetch_useless 792610
Core_0_L2C_prefetch_late 1921788
Core_0_L2C_average_miss_latency 334.44103

Core_0_LLC_total_access 62746956
Core_0_LLC_total_hit 12614254
Core_0_LLC_total_miss 50132702
Core_0_LLC_loads 7108648
Core_0_LLC_load_hit 5375360
Core_0_LLC_load_miss 1733288
Core_0_LLC_RFOs 15808172
Core_0_LLC_RFO_hit 514846
Core_0_LLC_RFO_miss 15293326
Core_0_LLC_prefetches 10279478
Core_0_LLC_prefetch_hit 642322
Core_0_LLC_prefetch_miss 9637156
Core_0_LLC_writebacks 29550658
Core_0_LLC_writeback_hit 6081726
Core_0_LLC_writeback_miss 23468932
Core_0_LLC_prefetch_requested 0
Core_0_LLC_prefetch_issued 0
Core_0_LLC_prefetch_useful 33744
Core_0_LLC_prefetch_useless 12038757
Core_0_LLC_prefetch_late 0
Core_0_LLC_average_miss_latency 202.09020

Core_0_major_page_fault 0
Core_0_minor_page_fault 401483

CPU 0 L2C prefetcher final stats
Channel_0_RQ_row_buffer_hit 1535939
Channel_0_RQ_row_buffer_miss 25126933
Channel_0_WQ_row_buffer_hit 2683961
Channel_0_WQ_row_buffer_miss 21796395
Channel_0_WQ_full 298
Channel_0_dbus_congested 30602553

avg_congested_cycle 11
