*************************************************
   ChampSim Multicore Out-of-Order Simulator
   Last compiled: Jan 20 2021 13:20:46
*************************************************

trace_0 traces/482.sphinx3-1100B.champsimtrace.xz
CPU 0 L2C Berti prefetcher
Initialize SHIP state
warmup_instructions 100000000
simulation_instructions 500000000
champsim_seed 260

num_cpus 1
cpu_freq 4000
dram_io_freq 2400
page_size 4096
block_size 64
max_read_per_cycle 8
max_fill_per_cycle 1
dram_channels 1
dram_ranks 1
dram_banks 8
dram_rows 65536
dram_columns 128
dram_row_size 8
dram_size 4096
dram_pages 1048576

fetch_width 6
decode_width 6
exec_width 4
lq_width 2
sq_width 2
retire_width 4
scheduler_size 128
branch_mispredict_penalty 20
rob_size 256
lq_size 72
sq_size 56
num_instr_destinations_sparc 4
num_instr_destinations 2
num_instr_sources 4

itlb_set 16
itlb_way 8
itlb_rq_size 16
itlb_wq_size 16
itlb_pq_size 0
itlb_mshr_size 8
itlb_latency 1

dtlb_set 16
dtlb_way 4
dtlb_rq_size 16
dtlb_wq_size 16
dtlb_pq_size 0
dtlb_mshr_size 8
dtlb_latency 1

stlb_set 128
stlb_way 12
stlb_rq_size 32
stlb_wq_size 32
stlb_pq_size 0
stlb_mshr_size 16
stlb_latency 8

l1i_size 32
l1i_set 64
l1i_way 8
l1i_rq_size 64
l1i_wq_size 64
l1i_pq_size 8
l1i_mshr_size 8
l1i_latency 1

l1d_size 32
l1d_set 64
l1d_way 8
l1d_rq_size 64
l1d_wq_size 64
l1d_pq_size 8
l1d_mshr_size 16
l1d_latency 4

l2c_size 512
l2c_set 1024
l2c_way 8
l2c_rq_size 32
l2c_wq_size 32
l2c_pq_size 16
l2c_mshr_size 32
l2c_latency 10

llc_size 2048
llc_set 2048
llc_way 16
llc_rq_size 32
llc_wq_size 32
llc_pq_size 32
llc_mshr_size 64
llc_latency 20

dram_channel_width 8
dram_wq_size 64
dram_rq_size 64
tRP 15
tRCD 15
tCAS 12.5
dram_dbus_turn_around_time 30
dram_write_high_wm 56
dram_write_low_wm 48
min_dram_writes_per_switch 16
dram_mtps 2400
dram_dbus_return_time 13


Heartbeat CPU  0 instructions:    1000001 cycles:     367692 heartbeat IPC: 2.71967 cumulative IPC: 2.71967 (Simulation time: 0 hr 0 min 2 sec) 
Heartbeat CPU  0 instructions:    2000003 cycles:     795251 heartbeat IPC: 2.33886 cumulative IPC: 2.51493 (Simulation time: 0 hr 0 min 4 sec) 
Heartbeat CPU  0 instructions:    3000001 cycles:    1253262 heartbeat IPC: 2.18335 cumulative IPC: 2.39375 (Simulation time: 0 hr 0 min 6 sec) 
Heartbeat CPU  0 instructions:    4000000 cycles:    1735973 heartbeat IPC: 2.07163 cumulative IPC: 2.30418 (Simulation time: 0 hr 0 min 7 sec) 
Heartbeat CPU  0 instructions:    5000000 cycles:    2178465 heartbeat IPC: 2.25993 cumulative IPC: 2.29519 (Simulation time: 0 hr 0 min 9 sec) 
Heartbeat CPU  0 instructions:    6000001 cycles:    2545806 heartbeat IPC: 2.72227 cumulative IPC: 2.35682 (Simulation time: 0 hr 0 min 11 sec) 
Heartbeat CPU  0 instructions:    7000000 cycles:    2936870 heartbeat IPC: 2.55712 cumulative IPC: 2.38349 (Simulation time: 0 hr 0 min 13 sec) 
Heartbeat CPU  0 instructions:    8000000 cycles:    3395571 heartbeat IPC: 2.18007 cumulative IPC: 2.35601 (Simulation time: 0 hr 0 min 15 sec) 
Heartbeat CPU  0 instructions:    9000000 cycles:    3853569 heartbeat IPC: 2.18342 cumulative IPC: 2.33550 (Simulation time: 0 hr 0 min 17 sec) 
Heartbeat CPU  0 instructions:   10000000 cycles:    4343648 heartbeat IPC: 2.04049 cumulative IPC: 2.30221 (Simulation time: 0 hr 0 min 19 sec) 
Heartbeat CPU  0 instructions:   11000001 cycles:    4715933 heartbeat IPC: 2.68612 cumulative IPC: 2.33252 (Simulation time: 0 hr 0 min 20 sec) 
Heartbeat CPU  0 instructions:   12000000 cycles:    5083118 heartbeat IPC: 2.72342 cumulative IPC: 2.36076 (Simulation time: 0 hr 0 min 22 sec) 
Heartbeat CPU  0 instructions:   13000001 cycles:    5532437 heartbeat IPC: 2.22559 cumulative IPC: 2.34978 (Simulation time: 0 hr 0 min 24 sec) 
Heartbeat CPU  0 instructions:   14000000 cycles:    5990473 heartbeat IPC: 2.18323 cumulative IPC: 2.33704 (Simulation time: 0 hr 0 min 26 sec) 
Heartbeat CPU  0 instructions:   15000000 cycles:    6472778 heartbeat IPC: 2.07338 cumulative IPC: 2.31740 (Simulation time: 0 hr 0 min 28 sec) 
Heartbeat CPU  0 instructions:   16000000 cycles:    6882760 heartbeat IPC: 2.43913 cumulative IPC: 2.32465 (Simulation time: 0 hr 0 min 30 sec) 
Heartbeat CPU  0 instructions:   17000003 cycles:    7250015 heartbeat IPC: 2.72291 cumulative IPC: 2.34482 (Simulation time: 0 hr 0 min 32 sec) 
Heartbeat CPU  0 instructions:   18000003 cycles:    7662036 heartbeat IPC: 2.42706 cumulative IPC: 2.34925 (Simulation time: 0 hr 0 min 34 sec) 
Heartbeat CPU  0 instructions:   19000003 cycles:    8120170 heartbeat IPC: 2.18277 cumulative IPC: 2.33985 (Simulation time: 0 hr 0 min 36 sec) 
Heartbeat CPU  0 instructions:   20000000 cycles:    8588569 heartbeat IPC: 2.13493 cumulative IPC: 2.32868 (Simulation time: 0 hr 0 min 37 sec) 
Heartbeat CPU  0 instructions:   21000002 cycles:    9047453 heartbeat IPC: 2.17920 cumulative IPC: 2.32110 (Simulation time: 0 hr 0 min 39 sec) 
Heartbeat CPU  0 instructions:   22000003 cycles:    9414685 heartbeat IPC: 2.72308 cumulative IPC: 2.33678 (Simulation time: 0 hr 0 min 41 sec) 
Heartbeat CPU  0 instructions:   23000001 cycles:    9795272 heartbeat IPC: 2.62751 cumulative IPC: 2.34807 (Simulation time: 0 hr 0 min 43 sec) 
Heartbeat CPU  0 instructions:   24000000 cycles:   10250770 heartbeat IPC: 2.19540 cumulative IPC: 2.34129 (Simulation time: 0 hr 0 min 45 sec) 
Heartbeat CPU  0 instructions:   25000002 cycles:   10706241 heartbeat IPC: 2.19553 cumulative IPC: 2.33509 (Simulation time: 0 hr 0 min 47 sec) 
Heartbeat CPU  0 instructions:   26000002 cycles:   11184823 heartbeat IPC: 2.08951 cumulative IPC: 2.32458 (Simulation time: 0 hr 0 min 49 sec) 
Heartbeat CPU  0 instructions:   27000001 cycles:   11577935 heartbeat IPC: 2.54380 cumulative IPC: 2.33202 (Simulation time: 0 hr 0 min 50 sec) 
Heartbeat CPU  0 instructions:   28000000 cycles:   11944925 heartbeat IPC: 2.72487 cumulative IPC: 2.34409 (Simulation time: 0 hr 0 min 52 sec) 
Heartbeat CPU  0 instructions:   29000001 cycles:   12381420 heartbeat IPC: 2.29098 cumulative IPC: 2.34222 (Simulation time: 0 hr 0 min 54 sec) 
Heartbeat CPU  0 instructions:   30000003 cycles:   12835194 heartbeat IPC: 2.20374 cumulative IPC: 2.33732 (Simulation time: 0 hr 0 min 56 sec) 
Heartbeat CPU  0 instructions:   31000002 cycles:   13289183 heartbeat IPC: 2.20269 cumulative IPC: 2.33272 (Simulation time: 0 hr 0 min 58 sec) 
Heartbeat CPU  0 instructions:   32000000 cycles:   13772241 heartbeat IPC: 2.07014 cumulative IPC: 2.32351 (Simulation time: 0 hr 1 min 0 sec) 
Heartbeat CPU  0 instructions:   33000003 cycles:   14173324 heartbeat IPC: 2.49326 cumulative IPC: 2.32832 (Simulation time: 0 hr 1 min 2 sec) 
Heartbeat CPU  0 instructions:   34000003 cycles:   14540343 heartbeat IPC: 2.72465 cumulative IPC: 2.33832 (Simulation time: 0 hr 1 min 4 sec) 
Heartbeat CPU  0 instructions:   35000000 cycles:   14967551 heartbeat IPC: 2.34077 cumulative IPC: 2.33839 (Simulation time: 0 hr 1 min 6 sec) 
Heartbeat CPU  0 instructions:   36000000 cycles:   15421456 heartbeat IPC: 2.20310 cumulative IPC: 2.33441 (Simulation time: 0 hr 1 min 7 sec) 
Heartbeat CPU  0 instructions:   37000000 cycles:   15875465 heartbeat IPC: 2.20260 cumulative IPC: 2.33064 (Simulation time: 0 hr 1 min 9 sec) 
Heartbeat CPU  0 instructions:   38000003 cycles:   16363072 heartbeat IPC: 2.05084 cumulative IPC: 2.32230 (Simulation time: 0 hr 1 min 11 sec) 
Heartbeat CPU  0 instructions:   39000001 cycles:   16770487 heartbeat IPC: 2.45449 cumulative IPC: 2.32551 (Simulation time: 0 hr 1 min 13 sec) 
Heartbeat CPU  0 instructions:   40000000 cycles:   17137607 heartbeat IPC: 2.72390 cumulative IPC: 2.33405 (Simulation time: 0 hr 1 min 15 sec) 
Heartbeat CPU  0 instructions:   41000003 cycles:   17557833 heartbeat IPC: 2.37968 cumulative IPC: 2.33514 (Simulation time: 0 hr 1 min 17 sec) 
Heartbeat CPU  0 instructions:   42000000 cycles:   18015997 heartbeat IPC: 2.18262 cumulative IPC: 2.33126 (Simulation time: 0 hr 1 min 18 sec) 
Heartbeat CPU  0 instructions:   43000001 cycles:   18472353 heartbeat IPC: 2.19127 cumulative IPC: 2.32780 (Simulation time: 0 hr 1 min 20 sec) 
Heartbeat CPU  0 instructions:   44000000 cycles:   18962485 heartbeat IPC: 2.04026 cumulative IPC: 2.32037 (Simulation time: 0 hr 1 min 22 sec) 
Heartbeat CPU  0 instructions:   45000002 cycles:   19374612 heartbeat IPC: 2.42644 cumulative IPC: 2.32263 (Simulation time: 0 hr 1 min 24 sec) 
Heartbeat CPU  0 instructions:   46000000 cycles:   19741851 heartbeat IPC: 2.72302 cumulative IPC: 2.33008 (Simulation time: 0 hr 1 min 26 sec) 
Heartbeat CPU  0 instructions:   47000002 cycles:   20155103 heartbeat IPC: 2.41984 cumulative IPC: 2.33192 (Simulation time: 0 hr 1 min 28 sec) 
Heartbeat CPU  0 instructions:   48000000 cycles:   20614942 heartbeat IPC: 2.17467 cumulative IPC: 2.32841 (Simulation time: 0 hr 1 min 29 sec) 
Heartbeat CPU  0 instructions:   49000003 cycles:   21071586 heartbeat IPC: 2.18990 cumulative IPC: 2.32541 (Simulation time: 0 hr 1 min 31 sec) 
Heartbeat CPU  0 instructions:   50000003 cycles:   21582076 heartbeat IPC: 1.95890 cumulative IPC: 2.31674 (Simulation time: 0 hr 1 min 33 sec) 
Heartbeat CPU  0 instructions:   51000002 cycles:   22044240 heartbeat IPC: 2.16373 cumulative IPC: 2.31353 (Simulation time: 0 hr 1 min 35 sec) 
Heartbeat CPU  0 instructions:   52000000 cycles:   22417431 heartbeat IPC: 2.67959 cumulative IPC: 2.31962 (Simulation time: 0 hr 1 min 37 sec) 
Heartbeat CPU  0 instructions:   53000001 cycles:   22784783 heartbeat IPC: 2.72219 cumulative IPC: 2.32611 (Simulation time: 0 hr 1 min 39 sec) 
Heartbeat CPU  0 instructions:   54000001 cycles:   23234441 heartbeat IPC: 2.22391 cumulative IPC: 2.32414 (Simulation time: 0 hr 1 min 40 sec) 
Heartbeat CPU  0 instructions:   55000001 cycles:   23688116 heartbeat IPC: 2.20422 cumulative IPC: 2.32184 (Simulation time: 0 hr 1 min 42 sec) 
Heartbeat CPU  0 instructions:   56000000 cycles:   24145124 heartbeat IPC: 2.18814 cumulative IPC: 2.31931 (Simulation time: 0 hr 1 min 44 sec) 
Heartbeat CPU  0 instructions:   57000003 cycles:   24630304 heartbeat IPC: 2.06110 cumulative IPC: 2.31422 (Simulation time: 0 hr 1 min 46 sec) 
Heartbeat CPU  0 instructions:   58000001 cycles:   25023793 heartbeat IPC: 2.54136 cumulative IPC: 2.31779 (Simulation time: 0 hr 1 min 48 sec) 
Heartbeat CPU  0 instructions:   59000001 cycles:   25390921 heartbeat IPC: 2.72385 cumulative IPC: 2.32367 (Simulation time: 0 hr 1 min 50 sec) 
Heartbeat CPU  0 instructions:   60000000 cycles:   25830420 heartbeat IPC: 2.27532 cumulative IPC: 2.32284 (Simulation time: 0 hr 1 min 51 sec) 
Heartbeat CPU  0 instructions:   61000000 cycles:   26286548 heartbeat IPC: 2.19237 cumulative IPC: 2.32058 (Simulation time: 0 hr 1 min 53 sec) 
Heartbeat CPU  0 instructions:   62000000 cycles:   26744103 heartbeat IPC: 2.18553 cumulative IPC: 2.31827 (Simulation time: 0 hr 1 min 55 sec) 
Heartbeat CPU  0 instructions:   63000000 cycles:   27231390 heartbeat IPC: 2.05218 cumulative IPC: 2.31351 (Simulation time: 0 hr 1 min 57 sec) 
Heartbeat CPU  0 instructions:   64000000 cycles:   27633421 heartbeat IPC: 2.48737 cumulative IPC: 2.31604 (Simulation time: 0 hr 1 min 59 sec) 
Heartbeat CPU  0 instructions:   65000000 cycles:   28000690 heartbeat IPC: 2.72280 cumulative IPC: 2.32137 (Simulation time: 0 hr 2 min 1 sec) 
Heartbeat CPU  0 instructions:   66000001 cycles:   28426012 heartbeat IPC: 2.35116 cumulative IPC: 2.32182 (Simulation time: 0 hr 2 min 3 sec) 
Heartbeat CPU  0 instructions:   67000003 cycles:   28885934 heartbeat IPC: 2.17429 cumulative IPC: 2.31947 (Simulation time: 0 hr 2 min 4 sec) 
Heartbeat CPU  0 instructions:   68000000 cycles:   29340080 heartbeat IPC: 2.20193 cumulative IPC: 2.31765 (Simulation time: 0 hr 2 min 6 sec) 
Heartbeat CPU  0 instructions:   69000001 cycles:   29827077 heartbeat IPC: 2.05340 cumulative IPC: 2.31333 (Simulation time: 0 hr 2 min 8 sec) 
Heartbeat CPU  0 instructions:   70000001 cycles:   30236227 heartbeat IPC: 2.44409 cumulative IPC: 2.31510 (Simulation time: 0 hr 2 min 10 sec) 
Heartbeat CPU  0 instructions:   71000001 cycles:   30603555 heartbeat IPC: 2.72236 cumulative IPC: 2.31999 (Simulation time: 0 hr 2 min 12 sec) 
Heartbeat CPU  0 instructions:   72000000 cycles:   31019319 heartbeat IPC: 2.40521 cumulative IPC: 2.32113 (Simulation time: 0 hr 2 min 14 sec) 
Heartbeat CPU  0 instructions:   73000000 cycles:   31476327 heartbeat IPC: 2.18815 cumulative IPC: 2.31920 (Simulation time: 0 hr 2 min 15 sec) 
Heartbeat CPU  0 instructions:   74000002 cycles:   31931714 heartbeat IPC: 2.19594 cumulative IPC: 2.31745 (Simulation time: 0 hr 2 min 17 sec) 
Heartbeat CPU  0 instructions:   75000002 cycles:   32420181 heartbeat IPC: 2.04722 cumulative IPC: 2.31337 (Simulation time: 0 hr 2 min 19 sec) 
Heartbeat CPU  0 instructions:   76000000 cycles:   32838844 heartbeat IPC: 2.38855 cumulative IPC: 2.31433 (Simulation time: 0 hr 2 min 21 sec) 
Heartbeat CPU  0 instructions:   77000003 cycles:   33206127 heartbeat IPC: 2.72270 cumulative IPC: 2.31885 (Simulation time: 0 hr 2 min 23 sec) 
Heartbeat CPU  0 instructions:   78000002 cycles:   33614386 heartbeat IPC: 2.44942 cumulative IPC: 2.32044 (Simulation time: 0 hr 2 min 25 sec) 
Heartbeat CPU  0 instructions:   79000000 cycles:   34069852 heartbeat IPC: 2.19555 cumulative IPC: 2.31877 (Simulation time: 0 hr 2 min 26 sec) 
Heartbeat CPU  0 instructions:   80000000 cycles:   34526985 heartbeat IPC: 2.18755 cumulative IPC: 2.31703 (Simulation time: 0 hr 2 min 28 sec) 
Heartbeat CPU  0 instructions:   81000001 cycles:   34986082 heartbeat IPC: 2.17819 cumulative IPC: 2.31521 (Simulation time: 0 hr 2 min 30 sec) 
Heartbeat CPU  0 instructions:   82000001 cycles:   35472740 heartbeat IPC: 2.05483 cumulative IPC: 2.31163 (Simulation time: 0 hr 2 min 32 sec) 
Heartbeat CPU  0 instructions:   83000001 cycles:   35844295 heartbeat IPC: 2.69139 cumulative IPC: 2.31557 (Simulation time: 0 hr 2 min 34 sec) 
Heartbeat CPU  0 instructions:   84000000 cycles:   36212468 heartbeat IPC: 2.71611 cumulative IPC: 2.31964 (Simulation time: 0 hr 2 min 36 sec) 
Heartbeat CPU  0 instructions:   85000003 cycles:   36668230 heartbeat IPC: 2.19413 cumulative IPC: 2.31808 (Simulation time: 0 hr 2 min 37 sec) 
Heartbeat CPU  0 instructions:   86000001 cycles:   37124035 heartbeat IPC: 2.19392 cumulative IPC: 2.31656 (Simulation time: 0 hr 2 min 39 sec) 
Heartbeat CPU  0 instructions:   87000003 cycles:   37581329 heartbeat IPC: 2.18678 cumulative IPC: 2.31498 (Simulation time: 0 hr 2 min 41 sec) 
Heartbeat CPU  0 instructions:   88000000 cycles:   38070886 heartbeat IPC: 2.04266 cumulative IPC: 2.31148 (Simulation time: 0 hr 2 min 43 sec) 
Heartbeat CPU  0 instructions:   89000002 cycles:   38474165 heartbeat IPC: 2.47968 cumulative IPC: 2.31324 (Simulation time: 0 hr 2 min 45 sec) 
Heartbeat CPU  0 instructions:   90000002 cycles:   38841554 heartbeat IPC: 2.72191 cumulative IPC: 2.31711 (Simulation time: 0 hr 2 min 47 sec) 
Heartbeat CPU  0 instructions:   91000002 cycles:   39262583 heartbeat IPC: 2.37513 cumulative IPC: 2.31773 (Simulation time: 0 hr 2 min 48 sec) 
Heartbeat CPU  0 instructions:   92000000 cycles:   39716306 heartbeat IPC: 2.20398 cumulative IPC: 2.31643 (Simulation time: 0 hr 2 min 50 sec) 
Heartbeat CPU  0 instructions:   93000002 cycles:   40172938 heartbeat IPC: 2.18995 cumulative IPC: 2.31499 (Simulation time: 0 hr 2 min 52 sec) 
Heartbeat CPU  0 instructions:   94000001 cycles:   40661322 heartbeat IPC: 2.04757 cumulative IPC: 2.31178 (Simulation time: 0 hr 2 min 54 sec) 
Heartbeat CPU  0 instructions:   95000003 cycles:   41033776 heartbeat IPC: 2.68490 cumulative IPC: 2.31517 (Simulation time: 0 hr 2 min 56 sec) 
Heartbeat CPU  0 instructions:   96000000 cycles:   41401019 heartbeat IPC: 2.72298 cumulative IPC: 2.31878 (Simulation time: 0 hr 2 min 58 sec) 
Heartbeat CPU  0 instructions:   97000001 cycles:   41847049 heartbeat IPC: 2.24200 cumulative IPC: 2.31797 (Simulation time: 0 hr 3 min 0 sec) 
Heartbeat CPU  0 instructions:   98000002 cycles:   42303714 heartbeat IPC: 2.18979 cumulative IPC: 2.31658 (Simulation time: 0 hr 3 min 1 sec) 
Heartbeat CPU  0 instructions:   99000003 cycles:   42789834 heartbeat IPC: 2.05711 cumulative IPC: 2.31363 (Simulation time: 0 hr 3 min 3 sec) 
Heartbeat CPU  0 instructions:  100000000 cycles:   43333853 heartbeat IPC: 1.83817 cumulative IPC: 2.30766 (Simulation time: 0 hr 3 min 5 sec) 

Warmup complete CPU  0 instructions:  100000001 cycles:   43333854 (Simulation time: 0 hr 3 min 5 sec) 

Heartbeat CPU  0 instructions:  101000001 cycles:   44184330 heartbeat IPC: 1.17581 cumulative IPC: 1.17581 (Simulation time: 0 hr 3 min 7 sec) 
Heartbeat CPU  0 instructions:  102000003 cycles:   44810349 heartbeat IPC: 1.59740 cumulative IPC: 1.35456 (Simulation time: 0 hr 3 min 10 sec) 
Heartbeat CPU  0 instructions:  103000000 cycles:   45562334 heartbeat IPC: 1.32981 cumulative IPC: 1.34621 (Simulation time: 0 hr 3 min 12 sec) 
Heartbeat CPU  0 instructions:  104000000 cycles:   46618999 heartbeat IPC: 0.94637 cumulative IPC: 1.21760 (Simulation time: 0 hr 3 min 15 sec) 
Heartbeat CPU  0 instructions:  105000000 cycles:   47584307 heartbeat IPC: 1.03594 cumulative IPC: 1.17634 (Simulation time: 0 hr 3 min 17 sec) 
Heartbeat CPU  0 instructions:  106000003 cycles:   48296366 heartbeat IPC: 1.40438 cumulative IPC: 1.20907 (Simulation time: 0 hr 3 min 19 sec) 
Heartbeat CPU  0 instructions:  107000003 cycles:   48898604 heartbeat IPC: 1.66047 cumulative IPC: 1.25792 (Simulation time: 0 hr 3 min 22 sec) 
Heartbeat CPU  0 instructions:  108000000 cycles:   49874112 heartbeat IPC: 1.02510 cumulative IPC: 1.22319 (Simulation time: 0 hr 3 min 24 sec) 
Heartbeat CPU  0 instructions:  109000000 cycles:   50906375 heartbeat IPC: 0.96875 cumulative IPC: 1.18851 (Simulation time: 0 hr 3 min 26 sec) 
Heartbeat CPU  0 instructions:  110000001 cycles:   51728613 heartbeat IPC: 1.21619 cumulative IPC: 1.19122 (Simulation time: 0 hr 3 min 29 sec) 
Heartbeat CPU  0 instructions:  111000002 cycles:   52341845 heartbeat IPC: 1.63071 cumulative IPC: 1.22114 (Simulation time: 0 hr 3 min 31 sec) 
Heartbeat CPU  0 instructions:  112000000 cycles:   53107474 heartbeat IPC: 1.30611 cumulative IPC: 1.22779 (Simulation time: 0 hr 3 min 33 sec) 
Heartbeat CPU  0 instructions:  113000003 cycles:   54139494 heartbeat IPC: 0.96898 cumulative IPC: 1.20308 (Simulation time: 0 hr 3 min 36 sec) 
Heartbeat CPU  0 instructions:  114000001 cycles:   55085358 heartbeat IPC: 1.05723 cumulative IPC: 1.19134 (Simulation time: 0 hr 3 min 38 sec) 
Heartbeat CPU  0 instructions:  115000000 cycles:   55958138 heartbeat IPC: 1.14576 cumulative IPC: 1.18819 (Simulation time: 0 hr 3 min 41 sec) 
Heartbeat CPU  0 instructions:  116000000 cycles:   56554477 heartbeat IPC: 1.67690 cumulative IPC: 1.21023 (Simulation time: 0 hr 3 min 43 sec) 
Heartbeat CPU  0 instructions:  117000000 cycles:   57555721 heartbeat IPC: 0.99876 cumulative IPC: 1.19534 (Simulation time: 0 hr 3 min 45 sec) 
Heartbeat CPU  0 instructions:  118000003 cycles:   58594697 heartbeat IPC: 0.96249 cumulative IPC: 1.17949 (Simulation time: 0 hr 3 min 48 sec) 
Heartbeat CPU  0 instructions:  119000002 cycles:   59652056 heartbeat IPC: 0.94575 cumulative IPC: 1.16434 (Simulation time: 0 hr 3 min 50 sec) 
Heartbeat CPU  0 instructions:  120000000 cycles:   60816040 heartbeat IPC: 0.85912 cumulative IPC: 1.14402 (Simulation time: 0 hr 3 min 53 sec) 
Heartbeat CPU  0 instructions:  121000000 cycles:   61695071 heartbeat IPC: 1.13762 cumulative IPC: 1.14372 (Simulation time: 0 hr 3 min 55 sec) 
Heartbeat CPU  0 instructions:  122000001 cycles:   62310276 heartbeat IPC: 1.62548 cumulative IPC: 1.15933 (Simulation time: 0 hr 3 min 58 sec) 
Heartbeat CPU  0 instructions:  123000001 cycles:   63077610 heartbeat IPC: 1.30321 cumulative IPC: 1.16493 (Simulation time: 0 hr 4 min 0 sec) 
Heartbeat CPU  0 instructions:  124000000 cycles:   64161552 heartbeat IPC: 0.92256 cumulative IPC: 1.15231 (Simulation time: 0 hr 4 min 2 sec) 
Heartbeat CPU  0 instructions:  125000001 cycles:   65216496 heartbeat IPC: 0.94792 cumulative IPC: 1.14246 (Simulation time: 0 hr 4 min 5 sec) 
Heartbeat CPU  0 instructions:  126000003 cycles:   66280420 heartbeat IPC: 0.93992 cumulative IPC: 1.13307 (Simulation time: 0 hr 4 min 7 sec) 
Heartbeat CPU  0 instructions:  127000000 cycles:   67241286 heartbeat IPC: 1.04072 cumulative IPC: 1.12936 (Simulation time: 0 hr 4 min 10 sec) 
Heartbeat CPU  0 instructions:  128000000 cycles:   67904719 heartbeat IPC: 1.50731 cumulative IPC: 1.13956 (Simulation time: 0 hr 4 min 12 sec) 
Heartbeat CPU  0 instructions:  129000000 cycles:   68548353 heartbeat IPC: 1.55368 cumulative IPC: 1.15013 (Simulation time: 0 hr 4 min 14 sec) 
Heartbeat CPU  0 instructions:  130000000 cycles:   69644344 heartbeat IPC: 0.91242 cumulative IPC: 1.14023 (Simulation time: 0 hr 4 min 17 sec) 
Heartbeat CPU  0 instructions:  131000002 cycles:   70694923 heartbeat IPC: 0.95186 cumulative IPC: 1.13300 (Simulation time: 0 hr 4 min 19 sec) 
Heartbeat CPU  0 instructions:  132000000 cycles:   71775410 heartbeat IPC: 0.92551 cumulative IPC: 1.12511 (Simulation time: 0 hr 4 min 22 sec) 
Heartbeat CPU  0 instructions:  133000000 cycles:   72578427 heartbeat IPC: 1.24530 cumulative IPC: 1.12841 (Simulation time: 0 hr 4 min 24 sec) 
Heartbeat CPU  0 instructions:  134000002 cycles:   73183652 heartbeat IPC: 1.65228 cumulative IPC: 1.13904 (Simulation time: 0 hr 4 min 26 sec) 
Heartbeat CPU  0 instructions:  135000001 cycles:   74035093 heartbeat IPC: 1.17448 cumulative IPC: 1.14002 (Simulation time: 0 hr 4 min 29 sec) 
Heartbeat CPU  0 instructions:  136000000 cycles:   75084896 heartbeat IPC: 0.95256 cumulative IPC: 1.13382 (Simulation time: 0 hr 4 min 31 sec) 
Heartbeat CPU  0 instructions:  137000002 cycles:   76106224 heartbeat IPC: 0.97912 cumulative IPC: 1.12900 (Simulation time: 0 hr 4 min 33 sec) 
Heartbeat CPU  0 instructions:  138000002 cycles:   76866132 heartbeat IPC: 1.31595 cumulative IPC: 1.13324 (Simulation time: 0 hr 4 min 36 sec) 
Heartbeat CPU  0 instructions:  139000002 cycles:   77472251 heartbeat IPC: 1.64984 cumulative IPC: 1.14241 (Simulation time: 0 hr 4 min 38 sec) 
Heartbeat CPU  0 instructions:  140000000 cycles:   78378263 heartbeat IPC: 1.10374 cumulative IPC: 1.14141 (Simulation time: 0 hr 4 min 41 sec) 
Heartbeat CPU  0 instructions:  141000000 cycles:   79420186 heartbeat IPC: 0.95976 cumulative IPC: 1.13616 (Simulation time: 0 hr 4 min 43 sec) 
Heartbeat CPU  0 instructions:  142000001 cycles:   80399171 heartbeat IPC: 1.02147 cumulative IPC: 1.13313 (Simulation time: 0 hr 4 min 45 sec) 
Heartbeat CPU  0 instructions:  143000003 cycles:   81097912 heartbeat IPC: 1.43115 cumulative IPC: 1.13865 (Simulation time: 0 hr 4 min 48 sec) 
Heartbeat CPU  0 instructions:  144000000 cycles:   81694702 heartbeat IPC: 1.67563 cumulative IPC: 1.14700 (Simulation time: 0 hr 4 min 50 sec) 
Heartbeat CPU  0 instructions:  145000002 cycles:   82703677 heartbeat IPC: 0.99111 cumulative IPC: 1.14301 (Simulation time: 0 hr 4 min 52 sec) 
Heartbeat CPU  0 instructions:  146000002 cycles:   83749892 heartbeat IPC: 0.95583 cumulative IPC: 1.13816 (Simulation time: 0 hr 4 min 55 sec) 
Heartbeat CPU  0 instructions:  147000002 cycles:   84618321 heartbeat IPC: 1.15150 cumulative IPC: 1.13844 (Simulation time: 0 hr 4 min 57 sec) 
Heartbeat CPU  0 instructions:  148000000 cycles:   85235798 heartbeat IPC: 1.61949 cumulative IPC: 1.14553 (Simulation time: 0 hr 5 min 0 sec) 
Heartbeat CPU  0 instructions:  149000000 cycles:   85932219 heartbeat IPC: 1.43591 cumulative IPC: 1.15028 (Simulation time: 0 hr 5 min 2 sec) 
Heartbeat CPU  0 instructions:  150000003 cycles:   86993683 heartbeat IPC: 0.94210 cumulative IPC: 1.14522 (Simulation time: 0 hr 5 min 4 sec) 
Heartbeat CPU  0 instructions:  151000002 cycles:   88074042 heartbeat IPC: 0.92562 cumulative IPC: 1.13991 (Simulation time: 0 hr 5 min 7 sec) 
Heartbeat CPU  0 instructions:  152000000 cycles:   88970800 heartbeat IPC: 1.11513 cumulative IPC: 1.13943 (Simulation time: 0 hr 5 min 9 sec) 
Heartbeat CPU  0 instructions:  153000001 cycles:   89737443 heartbeat IPC: 1.30439 cumulative IPC: 1.14215 (Simulation time: 0 hr 5 min 11 sec) 
Heartbeat CPU  0 instructions:  154000003 cycles:   90339700 heartbeat IPC: 1.66042 cumulative IPC: 1.14879 (Simulation time: 0 hr 5 min 14 sec) 
Heartbeat CPU  0 instructions:  155000003 cycles:   91193065 heartbeat IPC: 1.17183 cumulative IPC: 1.14920 (Simulation time: 0 hr 5 min 16 sec) 
Heartbeat CPU  0 instructions:  156000000 cycles:   92225851 heartbeat IPC: 0.96825 cumulative IPC: 1.14538 (Simulation time: 0 hr 5 min 19 sec) 
Heartbeat CPU  0 instructions:  157000003 cycles:   93175738 heartbeat IPC: 1.05276 cumulative IPC: 1.14362 (Simulation time: 0 hr 5 min 21 sec) 
Heartbeat CPU  0 instructions:  158000002 cycles:   93842859 heartbeat IPC: 1.49898 cumulative IPC: 1.14831 (Simulation time: 0 hr 5 min 23 sec) 
Heartbeat CPU  0 instructions:  159000000 cycles:   94440416 heartbeat IPC: 1.67348 cumulative IPC: 1.15445 (Simulation time: 0 hr 5 min 26 sec) 
Heartbeat CPU  0 instructions:  160000000 cycles:   95507450 heartbeat IPC: 0.93718 cumulative IPC: 1.15001 (Simulation time: 0 hr 5 min 28 sec) 
Heartbeat CPU  0 instructions:  161000000 cycles:   96534994 heartbeat IPC: 0.97319 cumulative IPC: 1.14659 (Simulation time: 0 hr 5 min 30 sec) 
Heartbeat CPU  0 instructions:  162000003 cycles:   97314516 heartbeat IPC: 1.28284 cumulative IPC: 1.14856 (Simulation time: 0 hr 5 min 33 sec) 
Heartbeat CPU  0 instructions:  163000002 cycles:   97916040 heartbeat IPC: 1.66244 cumulative IPC: 1.15422 (Simulation time: 0 hr 5 min 35 sec) 
Heartbeat CPU  0 instructions:  164000000 cycles:   98739756 heartbeat IPC: 1.21401 cumulative IPC: 1.15511 (Simulation time: 0 hr 5 min 38 sec) 
Heartbeat CPU  0 instructions:  165000000 cycles:   99771708 heartbeat IPC: 0.96904 cumulative IPC: 1.15171 (Simulation time: 0 hr 5 min 40 sec) 
Heartbeat CPU  0 instructions:  166000002 cycles:  100713404 heartbeat IPC: 1.06192 cumulative IPC: 1.15024 (Simulation time: 0 hr 5 min 42 sec) 
Heartbeat CPU  0 instructions:  167000001 cycles:  101386405 heartbeat IPC: 1.48588 cumulative IPC: 1.15413 (Simulation time: 0 hr 5 min 45 sec) 
Heartbeat CPU  0 instructions:  168000000 cycles:  101982901 heartbeat IPC: 1.67646 cumulative IPC: 1.15944 (Simulation time: 0 hr 5 min 47 sec) 
Heartbeat CPU  0 instructions:  169000000 cycles:  103042912 heartbeat IPC: 0.94339 cumulative IPC: 1.15560 (Simulation time: 0 hr 5 min 49 sec) 
Heartbeat CPU  0 instructions:  170000002 cycles:  104076767 heartbeat IPC: 0.96726 cumulative IPC: 1.15240 (Simulation time: 0 hr 5 min 52 sec) 
Heartbeat CPU  0 instructions:  171000003 cycles:  104875781 heartbeat IPC: 1.25154 cumulative IPC: 1.15369 (Simulation time: 0 hr 5 min 54 sec) 
Heartbeat CPU  0 instructions:  172000000 cycles:  105480914 heartbeat IPC: 1.65252 cumulative IPC: 1.15854 (Simulation time: 0 hr 5 min 57 sec) 
Heartbeat CPU  0 instructions:  173000000 cycles:  106304291 heartbeat IPC: 1.21451 cumulative IPC: 1.15927 (Simulation time: 0 hr 5 min 59 sec) 
Heartbeat CPU  0 instructions:  174000000 cycles:  107346829 heartbeat IPC: 0.95920 cumulative IPC: 1.15602 (Simulation time: 0 hr 6 min 1 sec) 
Heartbeat CPU  0 instructions:  175000002 cycles:  108297644 heartbeat IPC: 1.05173 cumulative IPC: 1.15449 (Simulation time: 0 hr 6 min 4 sec) 
Heartbeat CPU  0 instructions:  176000000 cycles:  108969860 heartbeat IPC: 1.48761 cumulative IPC: 1.15790 (Simulation time: 0 hr 6 min 6 sec) 
Heartbeat CPU  0 instructions:  177000003 cycles:  109564364 heartbeat IPC: 1.68208 cumulative IPC: 1.16261 (Simulation time: 0 hr 6 min 8 sec) 
Heartbeat CPU  0 instructions:  178000003 cycles:  110606839 heartbeat IPC: 0.95926 cumulative IPC: 1.15946 (Simulation time: 0 hr 6 min 11 sec) 
Heartbeat CPU  0 instructions:  179000002 cycles:  111646905 heartbeat IPC: 0.96148 cumulative IPC: 1.15644 (Simulation time: 0 hr 6 min 13 sec) 
Heartbeat CPU  0 instructions:  180000000 cycles:  112445758 heartbeat IPC: 1.25179 cumulative IPC: 1.15754 (Simulation time: 0 hr 6 min 16 sec) 
Heartbeat CPU  0 instructions:  181000002 cycles:  113050986 heartbeat IPC: 1.65227 cumulative IPC: 1.16184 (Simulation time: 0 hr 6 min 18 sec) 
Heartbeat CPU  0 instructions:  182000001 cycles:  113862833 heartbeat IPC: 1.23176 cumulative IPC: 1.16264 (Simulation time: 0 hr 6 min 20 sec) 
Heartbeat CPU  0 instructions:  183000002 cycles:  114883474 heartbeat IPC: 0.97978 cumulative IPC: 1.16003 (Simulation time: 0 hr 6 min 23 sec) 
Heartbeat CPU  0 instructions:  184000000 cycles:  115840778 heartbeat IPC: 1.04460 cumulative IPC: 1.15851 (Simulation time: 0 hr 6 min 25 sec) 
Heartbeat CPU  0 instructions:  185000003 cycles:  116518620 heartbeat IPC: 1.47527 cumulative IPC: 1.16144 (Simulation time: 0 hr 6 min 27 sec) 
Heartbeat CPU  0 instructions:  186000001 cycles:  117115822 heartbeat IPC: 1.67447 cumulative IPC: 1.16560 (Simulation time: 0 hr 6 min 30 sec) 
Heartbeat CPU  0 instructions:  187000002 cycles:  118161168 heartbeat IPC: 0.95662 cumulative IPC: 1.16268 (Simulation time: 0 hr 6 min 32 sec) 
Heartbeat CPU  0 instructions:  188000000 cycles:  119198305 heartbeat IPC: 0.96419 cumulative IPC: 1.15996 (Simulation time: 0 hr 6 min 34 sec) 
Heartbeat CPU  0 instructions:  189000001 cycles:  120001493 heartbeat IPC: 1.24504 cumulative IPC: 1.16085 (Simulation time: 0 hr 6 min 37 sec) 
Heartbeat CPU  0 instructions:  190000001 cycles:  120607546 heartbeat IPC: 1.65002 cumulative IPC: 1.16469 (Simulation time: 0 hr 6 min 39 sec) 
Heartbeat CPU  0 instructions:  191000003 cycles:  121418729 heartbeat IPC: 1.23277 cumulative IPC: 1.16540 (Simulation time: 0 hr 6 min 42 sec) 
Heartbeat CPU  0 instructions:  192000000 cycles:  122446756 heartbeat IPC: 0.97273 cumulative IPC: 1.16289 (Simulation time: 0 hr 6 min 44 sec) 
Heartbeat CPU  0 instructions:  193000002 cycles:  123407549 heartbeat IPC: 1.04081 cumulative IPC: 1.16143 (Simulation time: 0 hr 6 min 46 sec) 
Heartbeat CPU  0 instructions:  194000002 cycles:  124077001 heartbeat IPC: 1.49376 cumulative IPC: 1.16419 (Simulation time: 0 hr 6 min 49 sec) 
Heartbeat CPU  0 instructions:  195000003 cycles:  124673549 heartbeat IPC: 1.67631 cumulative IPC: 1.16794 (Simulation time: 0 hr 6 min 51 sec) 
Heartbeat CPU  0 instructions:  196000000 cycles:  125702767 heartbeat IPC: 0.97161 cumulative IPC: 1.16549 (Simulation time: 0 hr 6 min 53 sec) 
Heartbeat CPU  0 instructions:  197000002 cycles:  126757458 heartbeat IPC: 0.94815 cumulative IPC: 1.16274 (Simulation time: 0 hr 6 min 56 sec) 
Heartbeat CPU  0 instructions:  198000001 cycles:  127547632 heartbeat IPC: 1.26554 cumulative IPC: 1.16371 (Simulation time: 0 hr 6 min 58 sec) 
Heartbeat CPU  0 instructions:  199000001 cycles:  128154708 heartbeat IPC: 1.64724 cumulative IPC: 1.16717 (Simulation time: 0 hr 7 min 1 sec) 
Heartbeat CPU  0 instructions:  200000000 cycles:  128952600 heartbeat IPC: 1.25330 cumulative IPC: 1.16797 (Simulation time: 0 hr 7 min 3 sec) 
Heartbeat CPU  0 instructions:  201000003 cycles:  129972555 heartbeat IPC: 0.98044 cumulative IPC: 1.16576 (Simulation time: 0 hr 7 min 5 sec) 
Heartbeat CPU  0 instructions:  202000001 cycles:  130929444 heartbeat IPC: 1.04505 cumulative IPC: 1.16444 (Simulation time: 0 hr 7 min 8 sec) 
Heartbeat CPU  0 instructions:  203000001 cycles:  131622104 heartbeat IPC: 1.44371 cumulative IPC: 1.16663 (Simulation time: 0 hr 7 min 10 sec) 
Heartbeat CPU  0 instructions:  204000000 cycles:  132216363 heartbeat IPC: 1.68277 cumulative IPC: 1.17008 (Simulation time: 0 hr 7 min 12 sec) 
Heartbeat CPU  0 instructions:  205000002 cycles:  133228042 heartbeat IPC: 0.98846 cumulative IPC: 1.16804 (Simulation time: 0 hr 7 min 15 sec) 
Heartbeat CPU  0 instructions:  206000001 cycles:  134281289 heartbeat IPC: 0.94944 cumulative IPC: 1.16551 (Simulation time: 0 hr 7 min 17 sec) 
Heartbeat CPU  0 instructions:  207000000 cycles:  135082384 heartbeat IPC: 1.24829 cumulative IPC: 1.16623 (Simulation time: 0 hr 7 min 20 sec) 
Heartbeat CPU  0 instructions:  208000000 cycles:  135685154 heartbeat IPC: 1.65901 cumulative IPC: 1.16945 (Simulation time: 0 hr 7 min 22 sec) 
Heartbeat CPU  0 instructions:  209000001 cycles:  136465501 heartbeat IPC: 1.28148 cumulative IPC: 1.17039 (Simulation time: 0 hr 7 min 24 sec) 
Heartbeat CPU  0 instructions:  210000000 cycles:  137485625 heartbeat IPC: 0.98027 cumulative IPC: 1.16833 (Simulation time: 0 hr 7 min 27 sec) 
Heartbeat CPU  0 instructions:  211000003 cycles:  138528809 heartbeat IPC: 0.95861 cumulative IPC: 1.16603 (Simulation time: 0 hr 7 min 29 sec) 
Heartbeat CPU  0 instructions:  212000000 cycles:  139375195 heartbeat IPC: 1.18149 cumulative IPC: 1.16616 (Simulation time: 0 hr 7 min 31 sec) 
Heartbeat CPU  0 instructions:  213000002 cycles:  140075882 heartbeat IPC: 1.42717 cumulative IPC: 1.16805 (Simulation time: 0 hr 7 min 34 sec) 
Heartbeat CPU  0 instructions:  214000000 cycles:  140672025 heartbeat IPC: 1.67745 cumulative IPC: 1.17117 (Simulation time: 0 hr 7 min 36 sec) 
Heartbeat CPU  0 instructions:  215000002 cycles:  141693849 heartbeat IPC: 0.97864 cumulative IPC: 1.16917 (Simulation time: 0 hr 7 min 39 sec) 
Heartbeat CPU  0 instructions:  216000000 cycles:  142742181 heartbeat IPC: 0.95389 cumulative IPC: 1.16690 (Simulation time: 0 hr 7 min 41 sec) 
Heartbeat CPU  0 instructions:  217000000 cycles:  143541411 heartbeat IPC: 1.25120 cumulative IPC: 1.16758 (Simulation time: 0 hr 7 min 43 sec) 
Heartbeat CPU  0 instructions:  218000000 cycles:  144146858 heartbeat IPC: 1.65167 cumulative IPC: 1.17048 (Simulation time: 0 hr 7 min 46 sec) 
Heartbeat CPU  0 instructions:  219000000 cycles:  144941870 heartbeat IPC: 1.25784 cumulative IPC: 1.17117 (Simulation time: 0 hr 7 min 48 sec) 
Heartbeat CPU  0 instructions:  220000000 cycles:  145962528 heartbeat IPC: 0.97976 cumulative IPC: 1.16926 (Simulation time: 0 hr 7 min 50 sec) 
Heartbeat CPU  0 instructions:  221000001 cycles:  146925456 heartbeat IPC: 1.03850 cumulative IPC: 1.16805 (Simulation time: 0 hr 7 min 53 sec) 
Heartbeat CPU  0 instructions:  222000003 cycles:  147609015 heartbeat IPC: 1.46293 cumulative IPC: 1.16998 (Simulation time: 0 hr 7 min 55 sec) 
Heartbeat CPU  0 instructions:  223000000 cycles:  148204407 heartbeat IPC: 1.67956 cumulative IPC: 1.17287 (Simulation time: 0 hr 7 min 57 sec) 
Heartbeat CPU  0 instructions:  224000000 cycles:  149238051 heartbeat IPC: 0.96745 cumulative IPC: 1.17087 (Simulation time: 0 hr 8 min 0 sec) 
Heartbeat CPU  0 instructions:  225000001 cycles:  150277525 heartbeat IPC: 0.96203 cumulative IPC: 1.16884 (Simulation time: 0 hr 8 min 2 sec) 
Heartbeat CPU  0 instructions:  226000002 cycles:  151076755 heartbeat IPC: 1.25121 cumulative IPC: 1.16945 (Simulation time: 0 hr 8 min 5 sec) 
Heartbeat CPU  0 instructions:  227000001 cycles:  151680998 heartbeat IPC: 1.65496 cumulative IPC: 1.17216 (Simulation time: 0 hr 8 min 7 sec) 
Heartbeat CPU  0 instructions:  228000000 cycles:  152481926 heartbeat IPC: 1.24855 cumulative IPC: 1.17272 (Simulation time: 0 hr 8 min 9 sec) 
Heartbeat CPU  0 instructions:  229000003 cycles:  153508493 heartbeat IPC: 0.97412 cumulative IPC: 1.17087 (Simulation time: 0 hr 8 min 12 sec) 
Heartbeat CPU  0 instructions:  230000001 cycles:  154473423 heartbeat IPC: 1.03634 cumulative IPC: 1.16970 (Simulation time: 0 hr 8 min 14 sec) 
Heartbeat CPU  0 instructions:  231000002 cycles:  155148304 heartbeat IPC: 1.48174 cumulative IPC: 1.17158 (Simulation time: 0 hr 8 min 16 sec) 
Heartbeat CPU  0 instructions:  232000000 cycles:  155743870 heartbeat IPC: 1.67907 cumulative IPC: 1.17427 (Simulation time: 0 hr 8 min 19 sec) 
Heartbeat CPU  0 instructions:  233000002 cycles:  156768829 heartbeat IPC: 0.97565 cumulative IPC: 1.17248 (Simulation time: 0 hr 8 min 21 sec) 
Heartbeat CPU  0 instructions:  234000002 cycles:  157814000 heartbeat IPC: 0.95678 cumulative IPC: 1.17051 (Simulation time: 0 hr 8 min 24 sec) 
Heartbeat CPU  0 instructions:  235000000 cycles:  158607135 heartbeat IPC: 1.26082 cumulative IPC: 1.17113 (Simulation time: 0 hr 8 min 26 sec) 
Heartbeat CPU  0 instructions:  236000000 cycles:  159211610 heartbeat IPC: 1.65433 cumulative IPC: 1.17365 (Simulation time: 0 hr 8 min 28 sec) 
Heartbeat CPU  0 instructions:  237000003 cycles:  160011907 heartbeat IPC: 1.24954 cumulative IPC: 1.17417 (Simulation time: 0 hr 8 min 31 sec) 
Heartbeat CPU  0 instructions:  238000000 cycles:  161030144 heartbeat IPC: 0.98209 cumulative IPC: 1.17251 (Simulation time: 0 hr 8 min 33 sec) 
Heartbeat CPU  0 instructions:  239000000 cycles:  161983803 heartbeat IPC: 1.04859 cumulative IPC: 1.17151 (Simulation time: 0 hr 8 min 35 sec) 
Heartbeat CPU  0 instructions:  240000000 cycles:  162670437 heartbeat IPC: 1.45638 cumulative IPC: 1.17315 (Simulation time: 0 hr 8 min 38 sec) 
Heartbeat CPU  0 instructions:  241000000 cycles:  163266221 heartbeat IPC: 1.67846 cumulative IPC: 1.17566 (Simulation time: 0 hr 8 min 40 sec) 
Heartbeat CPU  0 instructions:  242000002 cycles:  164278809 heartbeat IPC: 0.98757 cumulative IPC: 1.17409 (Simulation time: 0 hr 8 min 43 sec) 
Heartbeat CPU  0 instructions:  243000001 cycles:  165320413 heartbeat IPC: 0.96006 cumulative IPC: 1.17226 (Simulation time: 0 hr 8 min 45 sec) 
Heartbeat CPU  0 instructions:  244000000 cycles:  166120320 heartbeat IPC: 1.25014 cumulative IPC: 1.17277 (Simulation time: 0 hr 8 min 47 sec) 
Heartbeat CPU  0 instructions:  245000001 cycles:  166728239 heartbeat IPC: 1.64496 cumulative IPC: 1.17509 (Simulation time: 0 hr 8 min 50 sec) 
Heartbeat CPU  0 instructions:  246000000 cycles:  167523408 heartbeat IPC: 1.25759 cumulative IPC: 1.17562 (Simulation time: 0 hr 8 min 52 sec) 
Heartbeat CPU  0 instructions:  247000001 cycles:  168545244 heartbeat IPC: 0.97863 cumulative IPC: 1.17401 (Simulation time: 0 hr 8 min 55 sec) 
Heartbeat CPU  0 instructions:  248000000 cycles:  169504287 heartbeat IPC: 1.04271 cumulative IPC: 1.17302 (Simulation time: 0 hr 8 min 57 sec) 
Heartbeat CPU  0 instructions:  249000003 cycles:  170198621 heartbeat IPC: 1.44023 cumulative IPC: 1.17448 (Simulation time: 0 hr 8 min 59 sec) 
Heartbeat CPU  0 instructions:  250000003 cycles:  170794884 heartbeat IPC: 1.67711 cumulative IPC: 1.17683 (Simulation time: 0 hr 9 min 2 sec) 
Heartbeat CPU  0 instructions:  251000002 cycles:  171824384 heartbeat IPC: 0.97134 cumulative IPC: 1.17518 (Simulation time: 0 hr 9 min 4 sec) 
Heartbeat CPU  0 instructions:  252000000 cycles:  172873164 heartbeat IPC: 0.95349 cumulative IPC: 1.17339 (Simulation time: 0 hr 9 min 6 sec) 
Heartbeat CPU  0 instructions:  253000002 cycles:  173670826 heartbeat IPC: 1.25367 cumulative IPC: 1.17388 (Simulation time: 0 hr 9 min 9 sec) 
Heartbeat CPU  0 instructions:  254000003 cycles:  174272910 heartbeat IPC: 1.66090 cumulative IPC: 1.17612 (Simulation time: 0 hr 9 min 11 sec) 
Heartbeat CPU  0 instructions:  255000002 cycles:  175080470 heartbeat IPC: 1.23830 cumulative IPC: 1.17650 (Simulation time: 0 hr 9 min 13 sec) 
Heartbeat CPU  0 instructions:  256000000 cycles:  176110227 heartbeat IPC: 0.97110 cumulative IPC: 1.17491 (Simulation time: 0 hr 9 min 16 sec) 
Heartbeat CPU  0 instructions:  257000001 cycles:  177057278 heartbeat IPC: 1.05591 cumulative IPC: 1.17407 (Simulation time: 0 hr 9 min 18 sec) 
Heartbeat CPU  0 instructions:  258000000 cycles:  177736706 heartbeat IPC: 1.47182 cumulative IPC: 1.17557 (Simulation time: 0 hr 9 min 21 sec) 
Heartbeat CPU  0 instructions:  259000000 cycles:  178334260 heartbeat IPC: 1.67349 cumulative IPC: 1.17777 (Simulation time: 0 hr 9 min 23 sec) 
Heartbeat CPU  0 instructions:  260000000 cycles:  179384674 heartbeat IPC: 0.95201 cumulative IPC: 1.17603 (Simulation time: 0 hr 9 min 25 sec) 
Heartbeat CPU  0 instructions:  261000003 cycles:  180413014 heartbeat IPC: 0.97244 cumulative IPC: 1.17450 (Simulation time: 0 hr 9 min 28 sec) 
Heartbeat CPU  0 instructions:  262000001 cycles:  181202299 heartbeat IPC: 1.26697 cumulative IPC: 1.17503 (Simulation time: 0 hr 9 min 30 sec) 
Heartbeat CPU  0 instructions:  263000002 cycles:  181802357 heartbeat IPC: 1.66651 cumulative IPC: 1.17716 (Simulation time: 0 hr 9 min 32 sec) 
Heartbeat CPU  0 instructions:  264000000 cycles:  182645568 heartbeat IPC: 1.18594 cumulative IPC: 1.17722 (Simulation time: 0 hr 9 min 35 sec) 
Heartbeat CPU  0 instructions:  265000000 cycles:  183722747 heartbeat IPC: 0.92835 cumulative IPC: 1.17531 (Simulation time: 0 hr 9 min 37 sec) 
Heartbeat CPU  0 instructions:  266000000 cycles:  184733184 heartbeat IPC: 0.98967 cumulative IPC: 1.17398 (Simulation time: 0 hr 9 min 40 sec) 
Heartbeat CPU  0 instructions:  267000002 cycles:  185556405 heartbeat IPC: 1.21474 cumulative IPC: 1.17422 (Simulation time: 0 hr 9 min 42 sec) 
Heartbeat CPU  0 instructions:  268000000 cycles:  186216831 heartbeat IPC: 1.51417 cumulative IPC: 1.17579 (Simulation time: 0 hr 9 min 44 sec) 
Heartbeat CPU  0 instructions:  269000002 cycles:  186811203 heartbeat IPC: 1.68245 cumulative IPC: 1.17789 (Simulation time: 0 hr 9 min 47 sec) 
Heartbeat CPU  0 instructions:  270000003 cycles:  188130621 heartbeat IPC: 0.75791 cumulative IPC: 1.17406 (Simulation time: 0 hr 9 min 49 sec) 
Heartbeat CPU  0 instructions:  271000001 cycles:  189027794 heartbeat IPC: 1.11461 cumulative IPC: 1.17369 (Simulation time: 0 hr 9 min 51 sec) 
Heartbeat CPU  0 instructions:  272000000 cycles:  189661254 heartbeat IPC: 1.57863 cumulative IPC: 1.17545 (Simulation time: 0 hr 9 min 54 sec) 
Heartbeat CPU  0 instructions:  273000001 cycles:  190329591 heartbeat IPC: 1.49625 cumulative IPC: 1.17690 (Simulation time: 0 hr 9 min 56 sec) 
Heartbeat CPU  0 instructions:  274000000 cycles:  191666056 heartbeat IPC: 0.74824 cumulative IPC: 1.17304 (Simulation time: 0 hr 9 min 59 sec) 
Heartbeat CPU  0 instructions:  275000003 cycles:  192471614 heartbeat IPC: 1.24138 cumulative IPC: 1.17341 (Simulation time: 0 hr 10 min 1 sec) 
Heartbeat CPU  0 instructions:  276000000 cycles:  193084333 heartbeat IPC: 1.63206 cumulative IPC: 1.17529 (Simulation time: 0 hr 10 min 3 sec) 
Heartbeat CPU  0 instructions:  277000001 cycles:  193934547 heartbeat IPC: 1.17618 cumulative IPC: 1.17529 (Simulation time: 0 hr 10 min 6 sec) 
Heartbeat CPU  0 instructions:  278000002 cycles:  195147133 heartbeat IPC: 0.82468 cumulative IPC: 1.17249 (Simulation time: 0 hr 10 min 8 sec) 
Heartbeat CPU  0 instructions:  279000003 cycles:  195923064 heartbeat IPC: 1.28878 cumulative IPC: 1.17308 (Simulation time: 0 hr 10 min 11 sec) 
Heartbeat CPU  0 instructions:  280000000 cycles:  196524901 heartbeat IPC: 1.66157 cumulative IPC: 1.17500 (Simulation time: 0 hr 10 min 13 sec) 
Heartbeat CPU  0 instructions:  281000003 cycles:  197431392 heartbeat IPC: 1.10316 cumulative IPC: 1.17458 (Simulation time: 0 hr 10 min 15 sec) 
Heartbeat CPU  0 instructions:  282000001 cycles:  198625968 heartbeat IPC: 0.83712 cumulative IPC: 1.17198 (Simulation time: 0 hr 10 min 18 sec) 
Heartbeat CPU  0 instructions:  283000003 cycles:  199410502 heartbeat IPC: 1.27464 cumulative IPC: 1.17250 (Simulation time: 0 hr 10 min 20 sec) 
Heartbeat CPU  0 instructions:  284000000 cycles:  200011428 heartbeat IPC: 1.66409 cumulative IPC: 1.17439 (Simulation time: 0 hr 10 min 22 sec) 
Heartbeat CPU  0 instructions:  285000002 cycles:  201049092 heartbeat IPC: 0.96371 cumulative IPC: 1.17300 (Simulation time: 0 hr 10 min 25 sec) 
Heartbeat CPU  0 instructions:  286000002 cycles:  202439781 heartbeat IPC: 0.71907 cumulative IPC: 1.16903 (Simulation time: 0 hr 10 min 27 sec) 
Heartbeat CPU  0 instructions:  287000003 cycles:  203369778 heartbeat IPC: 1.07527 cumulative IPC: 1.16849 (Simulation time: 0 hr 10 min 30 sec) 
Heartbeat CPU  0 instructions:  288000000 cycles:  203983373 heartbeat IPC: 1.62973 cumulative IPC: 1.17025 (Simulation time: 0 hr 10 min 32 sec) 
Heartbeat CPU  0 instructions:  289000001 cycles:  204767169 heartbeat IPC: 1.27584 cumulative IPC: 1.17076 (Simulation time: 0 hr 10 min 35 sec) 
Heartbeat CPU  0 instructions:  290000001 cycles:  206030984 heartbeat IPC: 0.79126 cumulative IPC: 1.16781 (Simulation time: 0 hr 10 min 37 sec) 
Heartbeat CPU  0 instructions:  291000003 cycles:  207329407 heartbeat IPC: 0.77017 cumulative IPC: 1.16467 (Simulation time: 0 hr 10 min 40 sec) 
Heartbeat CPU  0 instructions:  292000000 cycles:  208462817 heartbeat IPC: 0.88229 cumulative IPC: 1.16273 (Simulation time: 0 hr 10 min 42 sec) 
Heartbeat CPU  0 instructions:  293000001 cycles:  209145296 heartbeat IPC: 1.46525 cumulative IPC: 1.16397 (Simulation time: 0 hr 10 min 44 sec) 
Heartbeat CPU  0 instructions:  294000002 cycles:  209742394 heartbeat IPC: 1.67477 cumulative IPC: 1.16581 (Simulation time: 0 hr 10 min 47 sec) 
Heartbeat CPU  0 instructions:  295000003 cycles:  210800524 heartbeat IPC: 0.94506 cumulative IPC: 1.16441 (Simulation time: 0 hr 10 min 49 sec) 
Heartbeat CPU  0 instructions:  296000000 cycles:  211867560 heartbeat IPC: 0.93717 cumulative IPC: 1.16297 (Simulation time: 0 hr 10 min 52 sec) 
Heartbeat CPU  0 instructions:  297000002 cycles:  212924932 heartbeat IPC: 0.94574 cumulative IPC: 1.16162 (Simulation time: 0 hr 10 min 54 sec) 
Heartbeat CPU  0 instructions:  298000003 cycles:  214045598 heartbeat IPC: 0.89233 cumulative IPC: 1.15985 (Simulation time: 0 hr 10 min 56 sec) 
Heartbeat CPU  0 instructions:  299000001 cycles:  214932541 heartbeat IPC: 1.12747 cumulative IPC: 1.15968 (Simulation time: 0 hr 10 min 59 sec) 
Heartbeat CPU  0 instructions:  300000000 cycles:  215534816 heartbeat IPC: 1.66037 cumulative IPC: 1.16143 (Simulation time: 0 hr 11 min 1 sec) 
Heartbeat CPU  0 instructions:  301000000 cycles:  216430400 heartbeat IPC: 1.11659 cumulative IPC: 1.16120 (Simulation time: 0 hr 11 min 4 sec) 
Heartbeat CPU  0 instructions:  302000001 cycles:  217495365 heartbeat IPC: 0.93900 cumulative IPC: 1.15984 (Simulation time: 0 hr 11 min 6 sec) 
Heartbeat CPU  0 instructions:  303000003 cycles:  218535627 heartbeat IPC: 0.96130 cumulative IPC: 1.15866 (Simulation time: 0 hr 11 min 8 sec) 
Heartbeat CPU  0 instructions:  304000000 cycles:  219595340 heartbeat IPC: 0.94365 cumulative IPC: 1.15737 (Simulation time: 0 hr 11 min 11 sec) 
Heartbeat CPU  0 instructions:  305000000 cycles:  220808506 heartbeat IPC: 0.82429 cumulative IPC: 1.15509 (Simulation time: 0 hr 11 min 13 sec) 
Heartbeat CPU  0 instructions:  306000002 cycles:  221690221 heartbeat IPC: 1.13416 cumulative IPC: 1.15499 (Simulation time: 0 hr 11 min 16 sec) 
Heartbeat CPU  0 instructions:  307000001 cycles:  222290591 heartbeat IPC: 1.66564 cumulative IPC: 1.15670 (Simulation time: 0 hr 11 min 18 sec) 
Heartbeat CPU  0 instructions:  308000000 cycles:  223126847 heartbeat IPC: 1.19580 cumulative IPC: 1.15689 (Simulation time: 0 hr 11 min 21 sec) 
Heartbeat CPU  0 instructions:  309000002 cycles:  224215057 heartbeat IPC: 0.91894 cumulative IPC: 1.15545 (Simulation time: 0 hr 11 min 23 sec) 
Heartbeat CPU  0 instructions:  310000002 cycles:  225230951 heartbeat IPC: 0.98435 cumulative IPC: 1.15450 (Simulation time: 0 hr 11 min 25 sec) 
Heartbeat CPU  0 instructions:  311000002 cycles:  226307324 heartbeat IPC: 0.92905 cumulative IPC: 1.15317 (Simulation time: 0 hr 11 min 28 sec) 
Heartbeat CPU  0 instructions:  312000000 cycles:  227488108 heartbeat IPC: 0.84689 cumulative IPC: 1.15121 (Simulation time: 0 hr 11 min 30 sec) 
Heartbeat CPU  0 instructions:  313000003 cycles:  228315195 heartbeat IPC: 1.20907 cumulative IPC: 1.15147 (Simulation time: 0 hr 11 min 33 sec) 
Heartbeat CPU  0 instructions:  314000000 cycles:  228916176 heartbeat IPC: 1.66394 cumulative IPC: 1.15313 (Simulation time: 0 hr 11 min 35 sec) 
Heartbeat CPU  0 instructions:  315000003 cycles:  229799014 heartbeat IPC: 1.13271 cumulative IPC: 1.15303 (Simulation time: 0 hr 11 min 37 sec) 
Heartbeat CPU  0 instructions:  316000000 cycles:  230902180 heartbeat IPC: 0.90648 cumulative IPC: 1.15158 (Simulation time: 0 hr 11 min 40 sec) 
Heartbeat CPU  0 instructions:  317000002 cycles:  232092381 heartbeat IPC: 0.84020 cumulative IPC: 1.14962 (Simulation time: 0 hr 11 min 42 sec) 
Heartbeat CPU  0 instructions:  318000001 cycles:  233261783 heartbeat IPC: 0.85514 cumulative IPC: 1.14780 (Simulation time: 0 hr 11 min 45 sec) 
Heartbeat CPU  0 instructions:  319000002 cycles:  234111149 heartbeat IPC: 1.17735 cumulative IPC: 1.14794 (Simulation time: 0 hr 11 min 47 sec) 
Heartbeat CPU  0 instructions:  320000000 cycles:  234717095 heartbeat IPC: 1.65031 cumulative IPC: 1.14953 (Simulation time: 0 hr 11 min 50 sec) 
Heartbeat CPU  0 instructions:  321000000 cycles:  235631302 heartbeat IPC: 1.09384 cumulative IPC: 1.14926 (Simulation time: 0 hr 11 min 52 sec) 
Heartbeat CPU  0 instructions:  322000001 cycles:  236806927 heartbeat IPC: 0.85061 cumulative IPC: 1.14745 (Simulation time: 0 hr 11 min 54 sec) 
Heartbeat CPU  0 instructions:  323000000 cycles:  238017555 heartbeat IPC: 0.82602 cumulative IPC: 1.14545 (Simulation time: 0 hr 11 min 57 sec) 
Heartbeat CPU  0 instructions:  324000000 cycles:  239326355 heartbeat IPC: 0.76406 cumulative IPC: 1.14290 (Simulation time: 0 hr 11 min 59 sec) 
Heartbeat CPU  0 instructions:  325000000 cycles:  240189598 heartbeat IPC: 1.15842 cumulative IPC: 1.14297 (Simulation time: 0 hr 12 min 2 sec) 
Heartbeat CPU  0 instructions:  326000000 cycles:  240800737 heartbeat IPC: 1.63629 cumulative IPC: 1.14450 (Simulation time: 0 hr 12 min 4 sec) 
Heartbeat CPU  0 instructions:  327000001 cycles:  241573392 heartbeat IPC: 1.29424 cumulative IPC: 1.14508 (Simulation time: 0 hr 12 min 7 sec) 
Heartbeat CPU  0 instructions:  328000000 cycles:  242762798 heartbeat IPC: 0.84075 cumulative IPC: 1.14326 (Simulation time: 0 hr 12 min 9 sec) 
Heartbeat CPU  0 instructions:  329000000 cycles:  243929290 heartbeat IPC: 0.85727 cumulative IPC: 1.14160 (Simulation time: 0 hr 12 min 12 sec) 
Heartbeat CPU  0 instructions:  330000000 cycles:  245177776 heartbeat IPC: 0.80097 cumulative IPC: 1.13949 (Simulation time: 0 hr 12 min 14 sec) 
Heartbeat CPU  0 instructions:  331000003 cycles:  246019628 heartbeat IPC: 1.18786 cumulative IPC: 1.13970 (Simulation time: 0 hr 12 min 16 sec) 
Heartbeat CPU  0 instructions:  332000000 cycles:  246629586 heartbeat IPC: 1.63945 cumulative IPC: 1.14119 (Simulation time: 0 hr 12 min 19 sec) 
Heartbeat CPU  0 instructions:  333000000 cycles:  247435413 heartbeat IPC: 1.24096 cumulative IPC: 1.14159 (Simulation time: 0 hr 12 min 21 sec) 
Heartbeat CPU  0 instructions:  334000002 cycles:  248690976 heartbeat IPC: 0.79646 cumulative IPC: 1.13948 (Simulation time: 0 hr 12 min 24 sec) 
Heartbeat CPU  0 instructions:  335000002 cycles:  249922504 heartbeat IPC: 0.81200 cumulative IPC: 1.13753 (Simulation time: 0 hr 12 min 26 sec) 
Heartbeat CPU  0 instructions:  336000000 cycles:  251086344 heartbeat IPC: 0.85922 cumulative IPC: 1.13597 (Simulation time: 0 hr 12 min 29 sec) 
Heartbeat CPU  0 instructions:  337000003 cycles:  251922604 heartbeat IPC: 1.19580 cumulative IPC: 1.13621 (Simulation time: 0 hr 12 min 31 sec) 
Heartbeat CPU  0 instructions:  338000000 cycles:  252635919 heartbeat IPC: 1.40190 cumulative IPC: 1.13711 (Simulation time: 0 hr 12 min 33 sec) 
Heartbeat CPU  0 instructions:  339000001 cycles:  253236315 heartbeat IPC: 1.66557 cumulative IPC: 1.13862 (Simulation time: 0 hr 12 min 36 sec) 
Heartbeat CPU  0 instructions:  340000000 cycles:  254407667 heartbeat IPC: 0.85371 cumulative IPC: 1.13704 (Simulation time: 0 hr 12 min 38 sec) 
Heartbeat CPU  0 instructions:  341000000 cycles:  255658354 heartbeat IPC: 0.79956 cumulative IPC: 1.13506 (Simulation time: 0 hr 12 min 41 sec) 
Heartbeat CPU  0 instructions:  342000001 cycles:  256767063 heartbeat IPC: 0.90195 cumulative IPC: 1.13384 (Simulation time: 0 hr 12 min 43 sec) 
Heartbeat CPU  0 instructions:  343000001 cycles:  257527745 heartbeat IPC: 1.31461 cumulative IPC: 1.13449 (Simulation time: 0 hr 12 min 45 sec) 
Heartbeat CPU  0 instructions:  344000000 cycles:  258131018 heartbeat IPC: 1.65762 cumulative IPC: 1.13596 (Simulation time: 0 hr 12 min 48 sec) 
Heartbeat CPU  0 instructions:  345000000 cycles:  259191736 heartbeat IPC: 0.94276 cumulative IPC: 1.13501 (Simulation time: 0 hr 12 min 50 sec) 
Heartbeat CPU  0 instructions:  346000000 cycles:  260411029 heartbeat IPC: 0.82015 cumulative IPC: 1.13324 (Simulation time: 0 hr 12 min 53 sec) 
Heartbeat CPU  0 instructions:  347000000 cycles:  261631059 heartbeat IPC: 0.81965 cumulative IPC: 1.13148 (Simulation time: 0 hr 12 min 55 sec) 
Heartbeat CPU  0 instructions:  348000000 cycles:  262425950 heartbeat IPC: 1.25803 cumulative IPC: 1.13194 (Simulation time: 0 hr 12 min 58 sec) 
Heartbeat CPU  0 instructions:  349000003 cycles:  263024335 heartbeat IPC: 1.67117 cumulative IPC: 1.13341 (Simulation time: 0 hr 13 min 0 sec) 
Heartbeat CPU  0 instructions:  350000000 cycles:  263895976 heartbeat IPC: 1.14726 cumulative IPC: 1.13347 (Simulation time: 0 hr 13 min 2 sec) 
Heartbeat CPU  0 instructions:  351000000 cycles:  265126057 heartbeat IPC: 0.81295 cumulative IPC: 1.13169 (Simulation time: 0 hr 13 min 5 sec) 
Heartbeat CPU  0 instructions:  352000000 cycles:  266278419 heartbeat IPC: 0.86778 cumulative IPC: 1.13033 (Simulation time: 0 hr 13 min 7 sec) 
Heartbeat CPU  0 instructions:  353000001 cycles:  267065242 heartbeat IPC: 1.27094 cumulative IPC: 1.13082 (Simulation time: 0 hr 13 min 10 sec) 
Heartbeat CPU  0 instructions:  354000000 cycles:  267667726 heartbeat IPC: 1.65979 cumulative IPC: 1.13224 (Simulation time: 0 hr 13 min 12 sec) 
Heartbeat CPU  0 instructions:  355000002 cycles:  268573848 heartbeat IPC: 1.10361 cumulative IPC: 1.13213 (Simulation time: 0 hr 13 min 14 sec) 
Heartbeat CPU  0 instructions:  356000000 cycles:  269759411 heartbeat IPC: 0.84348 cumulative IPC: 1.13061 (Simulation time: 0 hr 13 min 17 sec) 
Heartbeat CPU  0 instructions:  357000000 cycles:  270902272 heartbeat IPC: 0.87500 cumulative IPC: 1.12933 (Simulation time: 0 hr 13 min 19 sec) 
Heartbeat CPU  0 instructions:  358000002 cycles:  271735682 heartbeat IPC: 1.19989 cumulative IPC: 1.12959 (Simulation time: 0 hr 13 min 22 sec) 
Heartbeat CPU  0 instructions:  359000000 cycles:  272336692 heartbeat IPC: 1.66386 cumulative IPC: 1.13099 (Simulation time: 0 hr 13 min 24 sec) 
Heartbeat CPU  0 instructions:  360000000 cycles:  273188065 heartbeat IPC: 1.17457 cumulative IPC: 1.13115 (Simulation time: 0 hr 13 min 26 sec) 
Heartbeat CPU  0 instructions:  361000002 cycles:  274316436 heartbeat IPC: 0.88624 cumulative IPC: 1.12996 (Simulation time: 0 hr 13 min 29 sec) 
Heartbeat CPU  0 instructions:  362000001 cycles:  275424131 heartbeat IPC: 0.90277 cumulative IPC: 1.12887 (Simulation time: 0 hr 13 min 31 sec) 
Heartbeat CPU  0 instructions:  363000002 cycles:  276451287 heartbeat IPC: 0.97356 cumulative IPC: 1.12819 (Simulation time: 0 hr 13 min 34 sec) 
Heartbeat CPU  0 instructions:  364000000 cycles:  277224288 heartbeat IPC: 1.29366 cumulative IPC: 1.12873 (Simulation time: 0 hr 13 min 36 sec) 
Heartbeat CPU  0 instructions:  365000002 cycles:  277827495 heartbeat IPC: 1.65781 cumulative IPC: 1.13009 (Simulation time: 0 hr 13 min 38 sec) 
Heartbeat CPU  0 instructions:  366000000 cycles:  278930508 heartbeat IPC: 0.90661 cumulative IPC: 1.12905 (Simulation time: 0 hr 13 min 41 sec) 
Heartbeat CPU  0 instructions:  367000000 cycles:  280209318 heartbeat IPC: 0.78198 cumulative IPC: 1.12717 (Simulation time: 0 hr 13 min 43 sec) 
Heartbeat CPU  0 instructions:  368000000 cycles:  281360991 heartbeat IPC: 0.86830 cumulative IPC: 1.12592 (Simulation time: 0 hr 13 min 46 sec) 
Heartbeat CPU  0 instructions:  369000001 cycles:  282156617 heartbeat IPC: 1.25687 cumulative IPC: 1.12636 (Simulation time: 0 hr 13 min 48 sec) 
Heartbeat CPU  0 instructions:  370000001 cycles:  282760520 heartbeat IPC: 1.65590 cumulative IPC: 1.12769 (Simulation time: 0 hr 13 min 51 sec) 
Heartbeat CPU  0 instructions:  371000000 cycles:  283855659 heartbeat IPC: 0.91313 cumulative IPC: 1.12672 (Simulation time: 0 hr 13 min 53 sec) 
Heartbeat CPU  0 instructions:  372000000 cycles:  285292923 heartbeat IPC: 0.69577 cumulative IPC: 1.12416 (Simulation time: 0 hr 13 min 56 sec) 
Heartbeat CPU  0 instructions:  373000001 cycles:  286310170 heartbeat IPC: 0.98305 cumulative IPC: 1.12357 (Simulation time: 0 hr 13 min 58 sec) 
Heartbeat CPU  0 instructions:  374000001 cycles:  286983324 heartbeat IPC: 1.48554 cumulative IPC: 1.12457 (Simulation time: 0 hr 14 min 0 sec) 
Heartbeat CPU  0 instructions:  375000000 cycles:  287578772 heartbeat IPC: 1.67941 cumulative IPC: 1.12592 (Simulation time: 0 hr 14 min 3 sec) 
Heartbeat CPU  0 instructions:  376000000 cycles:  289003255 heartbeat IPC: 0.70201 cumulative IPC: 1.12346 (Simulation time: 0 hr 14 min 5 sec) 
Heartbeat CPU  0 instructions:  377000001 cycles:  290338671 heartbeat IPC: 0.74883 cumulative IPC: 1.12144 (Simulation time: 0 hr 14 min 8 sec) 
Heartbeat CPU  0 instructions:  378000002 cycles:  291149664 heartbeat IPC: 1.23306 cumulative IPC: 1.12180 (Simulation time: 0 hr 14 min 10 sec) 
Heartbeat CPU  0 instructions:  379000001 cycles:  291756420 heartbeat IPC: 1.64811 cumulative IPC: 1.12309 (Simulation time: 0 hr 14 min 13 sec) 
Heartbeat CPU  0 instructions:  380000000 cycles:  292658155 heartbeat IPC: 1.10897 cumulative IPC: 1.12304 (Simulation time: 0 hr 14 min 15 sec) 
Heartbeat CPU  0 instructions:  381000001 cycles:  294010748 heartbeat IPC: 0.73932 cumulative IPC: 1.12096 (Simulation time: 0 hr 14 min 18 sec) 
Heartbeat CPU  0 instructions:  382000003 cycles:  295166297 heartbeat IPC: 0.86539 cumulative IPC: 1.11979 (Simulation time: 0 hr 14 min 20 sec) 
Heartbeat CPU  0 instructions:  383000003 cycles:  295942682 heartbeat IPC: 1.28802 cumulative IPC: 1.12031 (Simulation time: 0 hr 14 min 22 sec) 
Heartbeat CPU  0 instructions:  384000000 cycles:  296545591 heartbeat IPC: 1.65862 cumulative IPC: 1.12159 (Simulation time: 0 hr 14 min 25 sec) 
Heartbeat CPU  0 instructions:  385000000 cycles:  297734565 heartbeat IPC: 0.84106 cumulative IPC: 1.12028 (Simulation time: 0 hr 14 min 27 sec) 
Heartbeat CPU  0 instructions:  386000000 cycles:  299198675 heartbeat IPC: 0.68301 cumulative IPC: 1.11778 (Simulation time: 0 hr 14 min 30 sec) 
Heartbeat CPU  0 instructions:  387000000 cycles:  300284799 heartbeat IPC: 0.92071 cumulative IPC: 1.11694 (Simulation time: 0 hr 14 min 32 sec) 
Heartbeat CPU  0 instructions:  388000000 cycles:  300958820 heartbeat IPC: 1.48363 cumulative IPC: 1.11790 (Simulation time: 0 hr 14 min 35 sec) 
Heartbeat CPU  0 instructions:  389000000 cycles:  301553074 heartbeat IPC: 1.68278 cumulative IPC: 1.11920 (Simulation time: 0 hr 14 min 37 sec) 
Heartbeat CPU  0 instructions:  390000003 cycles:  302966779 heartbeat IPC: 0.70736 cumulative IPC: 1.11696 (Simulation time: 0 hr 14 min 40 sec) 
Heartbeat CPU  0 instructions:  391000003 cycles:  304405971 heartbeat IPC: 0.69483 cumulative IPC: 1.11463 (Simulation time: 0 hr 14 min 42 sec) 
Heartbeat CPU  0 instructions:  392000000 cycles:  305293262 heartbeat IPC: 1.12702 cumulative IPC: 1.11468 (Simulation time: 0 hr 14 min 45 sec) 
Heartbeat CPU  0 instructions:  393000001 cycles:  305905843 heartbeat IPC: 1.63244 cumulative IPC: 1.11588 (Simulation time: 0 hr 14 min 47 sec) 
Heartbeat CPU  0 instructions:  394000002 cycles:  306747898 heartbeat IPC: 1.18757 cumulative IPC: 1.11611 (Simulation time: 0 hr 14 min 49 sec) 
Heartbeat CPU  0 instructions:  395000002 cycles:  308146425 heartbeat IPC: 0.71504 cumulative IPC: 1.11400 (Simulation time: 0 hr 14 min 52 sec) 
Heartbeat CPU  0 instructions:  396000000 cycles:  309515264 heartbeat IPC: 0.73054 cumulative IPC: 1.11202 (Simulation time: 0 hr 14 min 54 sec) 
Heartbeat CPU  0 instructions:  397000000 cycles:  310431065 heartbeat IPC: 1.09194 cumulative IPC: 1.11195 (Simulation time: 0 hr 14 min 57 sec) 
Heartbeat CPU  0 instructions:  398000001 cycles:  311221783 heartbeat IPC: 1.26467 cumulative IPC: 1.11241 (Simulation time: 0 hr 14 min 59 sec) 
Heartbeat CPU  0 instructions:  399000000 cycles:  311828963 heartbeat IPC: 1.64696 cumulative IPC: 1.11361 (Simulation time: 0 hr 15 min 2 sec) 
Heartbeat CPU  0 instructions:  400000000 cycles:  312693952 heartbeat IPC: 1.15608 cumulative IPC: 1.11375 (Simulation time: 0 hr 15 min 4 sec) 
Heartbeat CPU  0 instructions:  401000002 cycles:  313991836 heartbeat IPC: 0.77049 cumulative IPC: 1.11210 (Simulation time: 0 hr 15 min 6 sec) 
Heartbeat CPU  0 instructions:  402000002 cycles:  315199657 heartbeat IPC: 0.82794 cumulative IPC: 1.11084 (Simulation time: 0 hr 15 min 9 sec) 
Heartbeat CPU  0 instructions:  403000002 cycles:  316197045 heartbeat IPC: 1.00262 cumulative IPC: 1.11045 (Simulation time: 0 hr 15 min 11 sec) 
Heartbeat CPU  0 instructions:  404000000 cycles:  316859284 heartbeat IPC: 1.51003 cumulative IPC: 1.11141 (Simulation time: 0 hr 15 min 14 sec) 
Heartbeat CPU  0 instructions:  405000001 cycles:  317500563 heartbeat IPC: 1.55939 cumulative IPC: 1.11246 (Simulation time: 0 hr 15 min 16 sec) 
Heartbeat CPU  0 instructions:  406000003 cycles:  318861054 heartbeat IPC: 0.73503 cumulative IPC: 1.11060 (Simulation time: 0 hr 15 min 19 sec) 
Heartbeat CPU  0 instructions:  407000000 cycles:  320116027 heartbeat IPC: 0.79683 cumulative IPC: 1.10918 (Simulation time: 0 hr 15 min 21 sec) 
Heartbeat CPU  0 instructions:  408000000 cycles:  321167217 heartbeat IPC: 0.95130 cumulative IPC: 1.10858 (Simulation time: 0 hr 15 min 23 sec) 
Heartbeat CPU  0 instructions:  409000001 cycles:  321917575 heartbeat IPC: 1.33270 cumulative IPC: 1.10918 (Simulation time: 0 hr 15 min 26 sec) 
Heartbeat CPU  0 instructions:  410000002 cycles:  322515178 heartbeat IPC: 1.67335 cumulative IPC: 1.11039 (Simulation time: 0 hr 15 min 28 sec) 
Heartbeat CPU  0 instructions:  411000001 cycles:  323752479 heartbeat IPC: 0.80821 cumulative IPC: 1.10906 (Simulation time: 0 hr 15 min 31 sec) 
Heartbeat CPU  0 instructions:  412000000 cycles:  325102834 heartbeat IPC: 0.74055 cumulative IPC: 1.10729 (Simulation time: 0 hr 15 min 33 sec) 
Heartbeat CPU  0 instructions:  413000001 cycles:  326198980 heartbeat IPC: 0.91229 cumulative IPC: 1.10653 (Simulation time: 0 hr 15 min 36 sec) 
Heartbeat CPU  0 instructions:  414000001 cycles:  326970580 heartbeat IPC: 1.29601 cumulative IPC: 1.10705 (Simulation time: 0 hr 15 min 38 sec) 
Heartbeat CPU  0 instructions:  415000000 cycles:  327568373 heartbeat IPC: 1.67282 cumulative IPC: 1.10824 (Simulation time: 0 hr 15 min 40 sec) 
Heartbeat CPU  0 instructions:  416000000 cycles:  328686912 heartbeat IPC: 0.89402 cumulative IPC: 1.10740 (Simulation time: 0 hr 15 min 43 sec) 
Heartbeat CPU  0 instructions:  417000003 cycles:  329949217 heartbeat IPC: 0.79220 cumulative IPC: 1.10601 (Simulation time: 0 hr 15 min 45 sec) 
Heartbeat CPU  0 instructions:  418000001 cycles:  331229544 heartbeat IPC: 0.78105 cumulative IPC: 1.10457 (Simulation time: 0 hr 15 min 48 sec) 
Heartbeat CPU  0 instructions:  419000000 cycles:  332308589 heartbeat IPC: 0.92674 cumulative IPC: 1.10390 (Simulation time: 0 hr 15 min 50 sec) 
Heartbeat CPU  0 instructions:  420000000 cycles:  333062008 heartbeat IPC: 1.32728 cumulative IPC: 1.10448 (Simulation time: 0 hr 15 min 53 sec) 
Heartbeat CPU  0 instructions:  421000001 cycles:  333659762 heartbeat IPC: 1.67293 cumulative IPC: 1.10565 (Simulation time: 0 hr 15 min 55 sec) 
Heartbeat CPU  0 instructions:  422000000 cycles:  334719167 heartbeat IPC: 0.94393 cumulative IPC: 1.10507 (Simulation time: 0 hr 15 min 57 sec) 
Heartbeat CPU  0 instructions:  423000000 cycles:  335809329 heartbeat IPC: 0.91729 cumulative IPC: 1.10437 (Simulation time: 0 hr 16 min 0 sec) 
Heartbeat CPU  0 instructions:  424000000 cycles:  336892707 heartbeat IPC: 0.92304 cumulative IPC: 1.10370 (Simulation time: 0 hr 16 min 2 sec) 
Heartbeat CPU  0 instructions:  425000001 cycles:  338038376 heartbeat IPC: 0.87285 cumulative IPC: 1.10280 (Simulation time: 0 hr 16 min 5 sec) 
Heartbeat CPU  0 instructions:  426000001 cycles:  338947391 heartbeat IPC: 1.10009 cumulative IPC: 1.10279 (Simulation time: 0 hr 16 min 7 sec) 
Heartbeat CPU  0 instructions:  427000000 cycles:  339570980 heartbeat IPC: 1.60362 cumulative IPC: 1.10385 (Simulation time: 0 hr 16 min 9 sec) 
Heartbeat CPU  0 instructions:  428000000 cycles:  340304917 heartbeat IPC: 1.36251 cumulative IPC: 1.10448 (Simulation time: 0 hr 16 min 12 sec) 
Heartbeat CPU  0 instructions:  429000002 cycles:  341430682 heartbeat IPC: 0.88829 cumulative IPC: 1.10367 (Simulation time: 0 hr 16 min 14 sec) 
Heartbeat CPU  0 instructions:  430000001 cycles:  342509201 heartbeat IPC: 0.92720 cumulative IPC: 1.10303 (Simulation time: 0 hr 16 min 17 sec) 
Heartbeat CPU  0 instructions:  431000001 cycles:  343570452 heartbeat IPC: 0.94228 cumulative IPC: 1.10246 (Simulation time: 0 hr 16 min 19 sec) 
Heartbeat CPU  0 instructions:  432000000 cycles:  344628821 heartbeat IPC: 0.94485 cumulative IPC: 1.10191 (Simulation time: 0 hr 16 min 22 sec) 
Heartbeat CPU  0 instructions:  433000003 cycles:  345369819 heartbeat IPC: 1.34954 cumulative IPC: 1.10252 (Simulation time: 0 hr 16 min 24 sec) 
Heartbeat CPU  0 instructions:  434000003 cycles:  345970775 heartbeat IPC: 1.66402 cumulative IPC: 1.10363 (Simulation time: 0 hr 16 min 26 sec) 
Heartbeat CPU  0 instructions:  435000000 cycles:  346993794 heartbeat IPC: 0.97750 cumulative IPC: 1.10321 (Simulation time: 0 hr 16 min 29 sec) 
Heartbeat CPU  0 instructions:  436000000 cycles:  348061351 heartbeat IPC: 0.93672 cumulative IPC: 1.10262 (Simulation time: 0 hr 16 min 31 sec) 
Heartbeat CPU  0 instructions:  437000002 cycles:  349143305 heartbeat IPC: 0.92426 cumulative IPC: 1.10199 (Simulation time: 0 hr 16 min 34 sec) 
Heartbeat CPU  0 instructions:  438000000 cycles:  350179543 heartbeat IPC: 0.96503 cumulative IPC: 1.10153 (Simulation time: 0 hr 16 min 36 sec) 
Heartbeat CPU  0 instructions:  439000002 cycles:  350911407 heartbeat IPC: 1.36638 cumulative IPC: 1.10216 (Simulation time: 0 hr 16 min 38 sec) 
Heartbeat CPU  0 instructions:  440000000 cycles:  351511527 heartbeat IPC: 1.66633 cumulative IPC: 1.10326 (Simulation time: 0 hr 16 min 41 sec) 
Heartbeat CPU  0 instructions:  441000002 cycles:  352512716 heartbeat IPC: 0.99881 cumulative IPC: 1.10292 (Simulation time: 0 hr 16 min 43 sec) 
Heartbeat CPU  0 instructions:  442000000 cycles:  353582936 heartbeat IPC: 0.93439 cumulative IPC: 1.10234 (Simulation time: 0 hr 16 min 46 sec) 
Heartbeat CPU  0 instructions:  443000002 cycles:  354664060 heartbeat IPC: 0.92497 cumulative IPC: 1.10172 (Simulation time: 0 hr 16 min 48 sec) 
Heartbeat CPU  0 instructions:  444000000 cycles:  355710599 heartbeat IPC: 0.95553 cumulative IPC: 1.10123 (Simulation time: 0 hr 16 min 50 sec) 
Heartbeat CPU  0 instructions:  445000000 cycles:  356422332 heartbeat IPC: 1.40502 cumulative IPC: 1.10192 (Simulation time: 0 hr 16 min 53 sec) 
Heartbeat CPU  0 instructions:  446000001 cycles:  357022803 heartbeat IPC: 1.66536 cumulative IPC: 1.10300 (Simulation time: 0 hr 16 min 55 sec) 
Heartbeat CPU  0 instructions:  447000003 cycles:  358061683 heartbeat IPC: 0.96258 cumulative IPC: 1.10254 (Simulation time: 0 hr 16 min 58 sec) 
Heartbeat CPU  0 instructions:  448000000 cycles:  359133349 heartbeat IPC: 0.93312 cumulative IPC: 1.10197 (Simulation time: 0 hr 17 min 0 sec) 
Heartbeat CPU  0 instructions:  449000001 cycles:  360188439 heartbeat IPC: 0.94779 cumulative IPC: 1.10145 (Simulation time: 0 hr 17 min 2 sec) 
Heartbeat CPU  0 instructions:  450000000 cycles:  361299098 heartbeat IPC: 0.90037 cumulative IPC: 1.10075 (Simulation time: 0 hr 17 min 5 sec) 
Heartbeat CPU  0 instructions:  451000003 cycles:  362165491 heartbeat IPC: 1.15421 cumulative IPC: 1.10089 (Simulation time: 0 hr 17 min 7 sec) 
Heartbeat CPU  0 instructions:  452000000 cycles:  362781233 heartbeat IPC: 1.62405 cumulative IPC: 1.10190 (Simulation time: 0 hr 17 min 10 sec) 
Heartbeat CPU  0 instructions:  453000000 cycles:  363544937 heartbeat IPC: 1.30941 cumulative IPC: 1.10240 (Simulation time: 0 hr 17 min 12 sec) 
Heartbeat CPU  0 instructions:  454000002 cycles:  364617442 heartbeat IPC: 0.93240 cumulative IPC: 1.10183 (Simulation time: 0 hr 17 min 14 sec) 
Heartbeat CPU  0 instructions:  455000002 cycles:  365692984 heartbeat IPC: 0.92976 cumulative IPC: 1.10126 (Simulation time: 0 hr 17 min 17 sec) 
Heartbeat CPU  0 instructions:  456000000 cycles:  366716458 heartbeat IPC: 0.97706 cumulative IPC: 1.10086 (Simulation time: 0 hr 17 min 19 sec) 
Heartbeat CPU  0 instructions:  457000003 cycles:  367729369 heartbeat IPC: 0.98726 cumulative IPC: 1.10051 (Simulation time: 0 hr 17 min 21 sec) 
Heartbeat CPU  0 instructions:  458000001 cycles:  368487543 heartbeat IPC: 1.31896 cumulative IPC: 1.10102 (Simulation time: 0 hr 17 min 24 sec) 
Heartbeat CPU  0 instructions:  459000000 cycles:  369086807 heartbeat IPC: 1.66871 cumulative IPC: 1.10206 (Simulation time: 0 hr 17 min 26 sec) 
Heartbeat CPU  0 instructions:  460000000 cycles:  370094725 heartbeat IPC: 0.99214 cumulative IPC: 1.10172 (Simulation time: 0 hr 17 min 29 sec) 
Heartbeat CPU  0 instructions:  461000002 cycles:  371170944 heartbeat IPC: 0.92918 cumulative IPC: 1.10116 (Simulation time: 0 hr 17 min 31 sec) 
Heartbeat CPU  0 instructions:  462000000 cycles:  372196645 heartbeat IPC: 0.97494 cumulative IPC: 1.10076 (Simulation time: 0 hr 17 min 34 sec) 
Heartbeat CPU  0 instructions:  463000000 cycles:  373232267 heartbeat IPC: 0.96560 cumulative IPC: 1.10034 (Simulation time: 0 hr 17 min 36 sec) 
Heartbeat CPU  0 instructions:  464000000 cycles:  373967068 heartbeat IPC: 1.36091 cumulative IPC: 1.10092 (Simulation time: 0 hr 17 min 38 sec) 
Heartbeat CPU  0 instructions:  465000000 cycles:  374568683 heartbeat IPC: 1.66219 cumulative IPC: 1.10194 (Simulation time: 0 hr 17 min 41 sec) 
Heartbeat CPU  0 instructions:  466000002 cycles:  375545153 heartbeat IPC: 1.02410 cumulative IPC: 1.10171 (Simulation time: 0 hr 17 min 43 sec) 
Heartbeat CPU  0 instructions:  467000002 cycles:  376618120 heartbeat IPC: 0.93200 cumulative IPC: 1.10116 (Simulation time: 0 hr 17 min 45 sec) 
Heartbeat CPU  0 instructions:  468000000 cycles:  377697056 heartbeat IPC: 0.92684 cumulative IPC: 1.10060 (Simulation time: 0 hr 17 min 48 sec) 
Heartbeat CPU  0 instructions:  469000001 cycles:  378584305 heartbeat IPC: 1.12708 cumulative IPC: 1.10067 (Simulation time: 0 hr 17 min 50 sec) 
Heartbeat CPU  0 instructions:  470000002 cycles:  379212621 heartbeat IPC: 1.59156 cumulative IPC: 1.10159 (Simulation time: 0 hr 17 min 53 sec) 
Heartbeat CPU  0 instructions:  471000001 cycles:  379914551 heartbeat IPC: 1.42464 cumulative IPC: 1.10226 (Simulation time: 0 hr 17 min 55 sec) 
Heartbeat CPU  0 instructions:  472000000 cycles:  380997031 heartbeat IPC: 0.92380 cumulative IPC: 1.10169 (Simulation time: 0 hr 17 min 57 sec) 
Heartbeat CPU  0 instructions:  473000003 cycles:  382056190 heartbeat IPC: 0.94415 cumulative IPC: 1.10120 (Simulation time: 0 hr 18 min 0 sec) 
Heartbeat CPU  0 instructions:  474000003 cycles:  383133894 heartbeat IPC: 0.92790 cumulative IPC: 1.10065 (Simulation time: 0 hr 18 min 2 sec) 
Heartbeat CPU  0 instructions:  475000003 cycles:  383984784 heartbeat IPC: 1.17524 cumulative IPC: 1.10083 (Simulation time: 0 hr 18 min 5 sec) 
Heartbeat CPU  0 instructions:  476000000 cycles:  384659294 heartbeat IPC: 1.48255 cumulative IPC: 1.10159 (Simulation time: 0 hr 18 min 7 sec) 
Heartbeat CPU  0 instructions:  477000000 cycles:  385255043 heartbeat IPC: 1.67856 cumulative IPC: 1.10259 (Simulation time: 0 hr 18 min 9 sec) 
Heartbeat CPU  0 instructions:  478000002 cycles:  386312275 heartbeat IPC: 0.94587 cumulative IPC: 1.10211 (Simulation time: 0 hr 18 min 12 sec) 
Heartbeat CPU  0 instructions:  479000003 cycles:  387372058 heartbeat IPC: 0.94359 cumulative IPC: 1.10162 (Simulation time: 0 hr 18 min 14 sec) 
Heartbeat CPU  0 instructions:  480000000 cycles:  388405415 heartbeat IPC: 0.96772 cumulative IPC: 1.10122 (Simulation time: 0 hr 18 min 16 sec) 
Heartbeat CPU  0 instructions:  481000002 cycles:  389221145 heartbeat IPC: 1.22590 cumulative IPC: 1.10151 (Simulation time: 0 hr 18 min 19 sec) 
Heartbeat CPU  0 instructions:  482000002 cycles:  389821848 heartbeat IPC: 1.66472 cumulative IPC: 1.10249 (Simulation time: 0 hr 18 min 21 sec) 
Heartbeat CPU  0 instructions:  483000003 cycles:  390719325 heartbeat IPC: 1.11424 cumulative IPC: 1.10252 (Simulation time: 0 hr 18 min 24 sec) 
Heartbeat CPU  0 instructions:  484000000 cycles:  391767150 heartbeat IPC: 0.95436 cumulative IPC: 1.10208 (Simulation time: 0 hr 18 min 26 sec) 
Heartbeat CPU  0 instructions:  485000003 cycles:  392822487 heartbeat IPC: 0.94757 cumulative IPC: 1.10161 (Simulation time: 0 hr 18 min 28 sec) 
Heartbeat CPU  0 instructions:  486000002 cycles:  393911905 heartbeat IPC: 0.91792 cumulative IPC: 1.10104 (Simulation time: 0 hr 18 min 31 sec) 
Heartbeat CPU  0 instructions:  487000002 cycles:  394867376 heartbeat IPC: 1.04660 cumulative IPC: 1.10089 (Simulation time: 0 hr 18 min 33 sec) 
Heartbeat CPU  0 instructions:  488000000 cycles:  395499545 heartbeat IPC: 1.58185 cumulative IPC: 1.10175 (Simulation time: 0 hr 18 min 36 sec) 
Heartbeat CPU  0 instructions:  489000000 cycles:  396193098 heartbeat IPC: 1.44185 cumulative IPC: 1.10242 (Simulation time: 0 hr 18 min 38 sec) 
Heartbeat CPU  0 instructions:  490000000 cycles:  397276429 heartbeat IPC: 0.92308 cumulative IPC: 1.10187 (Simulation time: 0 hr 18 min 40 sec) 
Heartbeat CPU  0 instructions:  491000002 cycles:  398356118 heartbeat IPC: 0.92619 cumulative IPC: 1.10134 (Simulation time: 0 hr 18 min 43 sec) 
Heartbeat CPU  0 instructions:  492000000 cycles:  399437796 heartbeat IPC: 0.92449 cumulative IPC: 1.10080 (Simulation time: 0 hr 18 min 45 sec) 
Heartbeat CPU  0 instructions:  493000002 cycles:  400462816 heartbeat IPC: 0.97559 cumulative IPC: 1.10044 (Simulation time: 0 hr 18 min 48 sec) 
Heartbeat CPU  0 instructions:  494000000 cycles:  401135858 heartbeat IPC: 1.48579 cumulative IPC: 1.10117 (Simulation time: 0 hr 18 min 50 sec) 
Heartbeat CPU  0 instructions:  495000001 cycles:  401731391 heartbeat IPC: 1.67917 cumulative IPC: 1.10213 (Simulation time: 0 hr 18 min 52 sec) 
Heartbeat CPU  0 instructions:  496000000 cycles:  402817641 heartbeat IPC: 0.92060 cumulative IPC: 1.10158 (Simulation time: 0 hr 18 min 55 sec) 
Heartbeat CPU  0 instructions:  497000001 cycles:  403907348 heartbeat IPC: 0.91768 cumulative IPC: 1.10102 (Simulation time: 0 hr 18 min 57 sec) 
Heartbeat CPU  0 instructions:  498000000 cycles:  404977500 heartbeat IPC: 0.93445 cumulative IPC: 1.10053 (Simulation time: 0 hr 19 min 0 sec) 
Heartbeat CPU  0 instructions:  499000002 cycles:  406012269 heartbeat IPC: 0.96640 cumulative IPC: 1.10015 (Simulation time: 0 hr 19 min 2 sec) 
Heartbeat CPU  0 instructions:  500000000 cycles:  406810119 heartbeat IPC: 1.25337 cumulative IPC: 1.10048 (Simulation time: 0 hr 19 min 4 sec) 
Heartbeat CPU  0 instructions:  501000002 cycles:  407411316 heartbeat IPC: 1.66335 cumulative IPC: 1.10141 (Simulation time: 0 hr 19 min 7 sec) 
Heartbeat CPU  0 instructions:  502000000 cycles:  408408839 heartbeat IPC: 1.00248 cumulative IPC: 1.10114 (Simulation time: 0 hr 19 min 9 sec) 
Heartbeat CPU  0 instructions:  503000000 cycles:  409469775 heartbeat IPC: 0.94256 cumulative IPC: 1.10068 (Simulation time: 0 hr 19 min 12 sec) 
Heartbeat CPU  0 instructions:  504000000 cycles:  410556622 heartbeat IPC: 0.92009 cumulative IPC: 1.10015 (Simulation time: 0 hr 19 min 14 sec) 
Heartbeat CPU  0 instructions:  505000000 cycles:  411655590 heartbeat IPC: 0.90994 cumulative IPC: 1.09958 (Simulation time: 0 hr 19 min 16 sec) 
Heartbeat CPU  0 instructions:  506000001 cycles:  412643304 heartbeat IPC: 1.01244 cumulative IPC: 1.09935 (Simulation time: 0 hr 19 min 19 sec) 
Heartbeat CPU  0 instructions:  507000000 cycles:  413265270 heartbeat IPC: 1.60780 cumulative IPC: 1.10020 (Simulation time: 0 hr 19 min 21 sec) 
Heartbeat CPU  0 instructions:  508000000 cycles:  414003987 heartbeat IPC: 1.35370 cumulative IPC: 1.10071 (Simulation time: 0 hr 19 min 24 sec) 
Heartbeat CPU  0 instructions:  509000003 cycles:  415117127 heartbeat IPC: 0.89836 cumulative IPC: 1.10010 (Simulation time: 0 hr 19 min 26 sec) 
Heartbeat CPU  0 instructions:  510000002 cycles:  416170275 heartbeat IPC: 0.94953 cumulative IPC: 1.09968 (Simulation time: 0 hr 19 min 29 sec) 
Heartbeat CPU  0 instructions:  511000001 cycles:  417248706 heartbeat IPC: 0.92727 cumulative IPC: 1.09918 (Simulation time: 0 hr 19 min 31 sec) 
Heartbeat CPU  0 instructions:  512000000 cycles:  418413186 heartbeat IPC: 0.85875 cumulative IPC: 1.09843 (Simulation time: 0 hr 19 min 33 sec) 
Heartbeat CPU  0 instructions:  513000000 cycles:  419275202 heartbeat IPC: 1.16007 cumulative IPC: 1.09858 (Simulation time: 0 hr 19 min 36 sec) 
Heartbeat CPU  0 instructions:  514000000 cycles:  419878313 heartbeat IPC: 1.65807 cumulative IPC: 1.09947 (Simulation time: 0 hr 19 min 38 sec) 
Heartbeat CPU  0 instructions:  515000000 cycles:  420713090 heartbeat IPC: 1.19792 cumulative IPC: 1.09969 (Simulation time: 0 hr 19 min 41 sec) 
Heartbeat CPU  0 instructions:  516000000 cycles:  421800227 heartbeat IPC: 0.91985 cumulative IPC: 1.09917 (Simulation time: 0 hr 19 min 43 sec) 
Heartbeat CPU  0 instructions:  517000000 cycles:  422827917 heartbeat IPC: 0.97306 cumulative IPC: 1.09883 (Simulation time: 0 hr 19 min 45 sec) 
Heartbeat CPU  0 instructions:  518000003 cycles:  423887292 heartbeat IPC: 0.94396 cumulative IPC: 1.09840 (Simulation time: 0 hr 19 min 48 sec) 
Heartbeat CPU  0 instructions:  519000002 cycles:  425006885 heartbeat IPC: 0.89318 cumulative IPC: 1.09780 (Simulation time: 0 hr 19 min 50 sec) 
Heartbeat CPU  0 instructions:  520000000 cycles:  425831870 heartbeat IPC: 1.21214 cumulative IPC: 1.09804 (Simulation time: 0 hr 19 min 53 sec) 
Heartbeat CPU  0 instructions:  521000003 cycles:  426435323 heartbeat IPC: 1.65713 cumulative IPC: 1.09893 (Simulation time: 0 hr 19 min 55 sec) 
Heartbeat CPU  0 instructions:  522000001 cycles:  427326865 heartbeat IPC: 1.12165 cumulative IPC: 1.09898 (Simulation time: 0 hr 19 min 57 sec) 
Heartbeat CPU  0 instructions:  523000000 cycles:  428392049 heartbeat IPC: 0.93880 cumulative IPC: 1.09854 (Simulation time: 0 hr 20 min 0 sec) 
Heartbeat CPU  0 instructions:  524000000 cycles:  429396100 heartbeat IPC: 0.99597 cumulative IPC: 1.09827 (Simulation time: 0 hr 20 min 2 sec) 
Heartbeat CPU  0 instructions:  525000001 cycles:  430471464 heartbeat IPC: 0.92992 cumulative IPC: 1.09780 (Simulation time: 0 hr 20 min 5 sec) 
Heartbeat CPU  0 instructions:  526000000 cycles:  431545653 heartbeat IPC: 0.93093 cumulative IPC: 1.09734 (Simulation time: 0 hr 20 min 7 sec) 
Heartbeat CPU  0 instructions:  527000002 cycles:  432347479 heartbeat IPC: 1.24716 cumulative IPC: 1.09765 (Simulation time: 0 hr 20 min 9 sec) 
Heartbeat CPU  0 instructions:  528000000 cycles:  432955411 heartbeat IPC: 1.64492 cumulative IPC: 1.09850 (Simulation time: 0 hr 20 min 12 sec) 
Heartbeat CPU  0 instructions:  529000003 cycles:  433894138 heartbeat IPC: 1.06528 cumulative IPC: 1.09842 (Simulation time: 0 hr 20 min 14 sec) 
Heartbeat CPU  0 instructions:  530000003 cycles:  434936306 heartbeat IPC: 0.95954 cumulative IPC: 1.09805 (Simulation time: 0 hr 20 min 17 sec) 
Heartbeat CPU  0 instructions:  531000002 cycles:  435958566 heartbeat IPC: 0.97822 cumulative IPC: 1.09774 (Simulation time: 0 hr 20 min 19 sec) 
Heartbeat CPU  0 instructions:  532000000 cycles:  437035051 heartbeat IPC: 0.92895 cumulative IPC: 1.09728 (Simulation time: 0 hr 20 min 22 sec) 
Heartbeat CPU  0 instructions:  533000000 cycles:  438149733 heartbeat IPC: 0.89712 cumulative IPC: 1.09671 (Simulation time: 0 hr 20 min 24 sec) 
[...]
Heartbeat CPU  0 instructions:  487000000 cycles: 2366121422 heartbeat IPC: 0.53077 cumulative IPC: 0.17144 (Simulation time: 0 hr 41 min 39 sec) 
Heartbeat CPU  0 instructions:  488000000 cycles: 2367841566 heartbeat IPC: 0.58135 cumulative IPC: 0.17175 (Simulation time: 0 hr 41 min 42 sec) 
Heartbeat CPU  0 instructions:  489000003 cycles: 2369903170 heartbeat IPC: 0.48506 cumulative IPC: 0.17204 (Simulation time: 0 hr 41 min 46 sec) 
Heartbeat CPU  0 instructions:  490000001 cycles: 2371897670 heartbeat IPC: 0.50138 cumulative IPC: 0.17233 (Simulation time: 0 hr 41 min 49 sec) 
Heartbeat CPU  0 instructions:  491000002 cycles: 2373747374 heartbeat IPC: 0.54063 cumulative IPC: 0.17263 (Simulation time: 0 hr 41 min 53 sec) 
Heartbeat CPU  0 instructions:  492000000 cycles: 2375622028 heartbeat IPC: 0.53343 cumulative IPC: 0.17293 (Simulation time: 0 hr 41 min 56 sec) 
Heartbeat CPU  0 instructions:  493000000 cycles: 2377507706 heartbeat IPC: 0.53031 cumulative IPC: 0.17323 (Simulation time: 0 hr 41 min 59 sec) 
Heartbeat CPU  0 instructions:  494000003 cycles: 2379438502 heartbeat IPC: 0.51792 cumulative IPC: 0.17352 (Simulation time: 0 hr 42 min 3 sec) 
Heartbeat CPU  0 instructions:  495000003 cycles: 2381325233 heartbeat IPC: 0.53002 cumulative IPC: 0.17382 (Simulation time: 0 hr 42 min 6 sec) 
Heartbeat CPU  0 instructions:  496000000 cycles: 2383239610 heartbeat IPC: 0.52236 cumulative IPC: 0.17411 (Simulation time: 0 hr 42 min 9 sec) 
Heartbeat CPU  0 instructions:  497000001 cycles: 2385135752 heartbeat IPC: 0.52739 cumulative IPC: 0.17440 (Simulation time: 0 hr 42 min 13 sec) 
Heartbeat CPU  0 instructions:  498000003 cycles: 2387039584 heartbeat IPC: 0.52526 cumulative IPC: 0.17470 (Simulation time: 0 hr 42 min 16 sec) 
Heartbeat CPU  0 instructions:  499000002 cycles: 2388970406 heartbeat IPC: 0.51791 cumulative IPC: 0.17499 (Simulation time: 0 hr 42 min 19 sec) 
Heartbeat CPU  0 instructions:  500000000 cycles: 2391104680 heartbeat IPC: 0.46854 cumulative IPC: 0.17526 (Simulation time: 0 hr 42 min 23 sec) 
Heartbeat CPU  0 instructions:  501000000 cycles: 2393288684 heartbeat IPC: 0.45787 cumulative IPC: 0.17553 (Simulation time: 0 hr 42 min 26 sec) 
Heartbeat CPU  0 instructions:  502000002 cycles: 2395145875 heartbeat IPC: 0.53845 cumulative IPC: 0.17583 (Simulation time: 0 hr 42 min 30 sec) 
Heartbeat CPU  0 instructions:  503000001 cycles: 2397025233 heartbeat IPC: 0.53210 cumulative IPC: 0.17612 (Simulation time: 0 hr 42 min 33 sec) 
Heartbeat CPU  0 instructions:  504000000 cycles: 2399188435 heartbeat IPC: 0.46228 cumulative IPC: 0.17639 (Simulation time: 0 hr 42 min 37 sec) 
Heartbeat CPU  0 instructions:  505000003 cycles: 2401531883 heartbeat IPC: 0.42672 cumulative IPC: 0.17665 (Simulation time: 0 hr 42 min 40 sec) 
Heartbeat CPU  0 instructions:  506000000 cycles: 2403604944 heartbeat IPC: 0.48238 cumulative IPC: 0.17692 (Simulation time: 0 hr 42 min 44 sec) 
Heartbeat CPU  0 instructions:  507000003 cycles: 2405659874 heartbeat IPC: 0.48664 cumulative IPC: 0.17720 (Simulation time: 0 hr 42 min 47 sec) 
Heartbeat CPU  0 instructions:  508000000 cycles: 2407623574 heartbeat IPC: 0.50924 cumulative IPC: 0.17748 (Simulation time: 0 hr 42 min 51 sec) 
Heartbeat CPU  0 instructions:  509000000 cycles: 2409590118 heartbeat IPC: 0.50851 cumulative IPC: 0.17777 (Simulation time: 0 hr 42 min 54 sec) 
Heartbeat CPU  0 instructions:  510000000 cycles: 2411507231 heartbeat IPC: 0.52162 cumulative IPC: 0.17805 (Simulation time: 0 hr 42 min 58 sec) 
Heartbeat CPU  0 instructions:  511000000 cycles: 2413410880 heartbeat IPC: 0.52531 cumulative IPC: 0.17834 (Simulation time: 0 hr 43 min 1 sec) 
Heartbeat CPU  0 instructions:  512000000 cycles: 2415340249 heartbeat IPC: 0.51830 cumulative IPC: 0.17862 (Simulation time: 0 hr 43 min 4 sec) 
Heartbeat CPU  0 instructions:  513000003 cycles: 2417290871 heartbeat IPC: 0.51266 cumulative IPC: 0.17891 (Simulation time: 0 hr 43 min 8 sec) 
Heartbeat CPU  0 instructions:  514000000 cycles: 2419458546 heartbeat IPC: 0.46132 cumulative IPC: 0.17917 (Simulation time: 0 hr 43 min 11 sec) 
Heartbeat CPU  0 instructions:  515000001 cycles: 2421481295 heartbeat IPC: 0.49438 cumulative IPC: 0.17945 (Simulation time: 0 hr 43 min 15 sec) 
Heartbeat CPU  0 instructions:  516000000 cycles: 2423488195 heartbeat IPC: 0.49828 cumulative IPC: 0.17972 (Simulation time: 0 hr 43 min 18 sec) 
Heartbeat CPU  0 instructions:  517000002 cycles: 2425671965 heartbeat IPC: 0.45792 cumulative IPC: 0.17998 (Simulation time: 0 hr 43 min 22 sec) 
Heartbeat CPU  0 instructions:  518000000 cycles: 2427622561 heartbeat IPC: 0.51266 cumulative IPC: 0.18026 (Simulation time: 0 hr 43 min 25 sec) 
Heartbeat CPU  0 instructions:  519000001 cycles: 2429537676 heartbeat IPC: 0.52216 cumulative IPC: 0.18055 (Simulation time: 0 hr 43 min 29 sec) 
Heartbeat CPU  0 instructions:  520000000 cycles: 2431435904 heartbeat IPC: 0.52681 cumulative IPC: 0.18083 (Simulation time: 0 hr 43 min 32 sec) 
Heartbeat CPU  0 instructions:  521000002 cycles: 2433178479 heartbeat IPC: 0.57386 cumulative IPC: 0.18112 (Simulation time: 0 hr 43 min 35 sec) 
Heartbeat CPU  0 instructions:  522000001 cycles: 2435048716 heartbeat IPC: 0.53469 cumulative IPC: 0.18141 (Simulation time: 0 hr 43 min 38 sec) 
Heartbeat CPU  0 instructions:  523000001 cycles: 2436956470 heartbeat IPC: 0.52418 cumulative IPC: 0.18169 (Simulation time: 0 hr 43 min 41 sec) 
Heartbeat CPU  0 instructions:  524000000 cycles: 2438910604 heartbeat IPC: 0.51174 cumulative IPC: 0.18197 (Simulation time: 0 hr 43 min 45 sec) 
Heartbeat CPU  0 instructions:  525000001 cycles: 2440823589 heartbeat IPC: 0.52274 cumulative IPC: 0.18225 (Simulation time: 0 hr 43 min 48 sec) 
Heartbeat CPU  0 instructions:  526000000 cycles: 2442822067 heartbeat IPC: 0.50038 cumulative IPC: 0.18252 (Simulation time: 0 hr 43 min 51 sec) 
Heartbeat CPU  0 instructions:  527000001 cycles: 2444813525 heartbeat IPC: 0.50215 cumulative IPC: 0.18279 (Simulation time: 0 hr 43 min 55 sec) 
Heartbeat CPU  0 instructions:  528000000 cycles: 2446833129 heartbeat IPC: 0.49515 cumulative IPC: 0.18306 (Simulation time: 0 hr 43 min 58 sec) 
Heartbeat CPU  0 instructions:  529000000 cycles: 2448700195 heartbeat IPC: 0.53560 cumulative IPC: 0.18334 (Simulation time: 0 hr 44 min 1 sec) 
Heartbeat CPU  0 instructions:  530000000 cycles: 2450631907 heartbeat IPC: 0.51768 cumulative IPC: 0.18362 (Simulation time: 0 hr 44 min 5 sec) 
Heartbeat CPU  0 instructions:  531000001 cycles: 2452564504 heartbeat IPC: 0.51744 cumulative IPC: 0.18389 (Simulation time: 0 hr 44 min 8 sec) 
Heartbeat CPU  0 instructions:  532000000 cycles: 2454663595 heartbeat IPC: 0.47640 cumulative IPC: 0.18415 (Simulation time: 0 hr 44 min 12 sec) 
Heartbeat CPU  0 instructions:  533000000 cycles: 2456414124 heartbeat IPC: 0.57126 cumulative IPC: 0.18444 (Simulation time: 0 hr 44 min 15 sec) 
Heartbeat CPU  0 instructions:  534000000 cycles: 2458578312 heartbeat IPC: 0.46207 cumulative IPC: 0.18470 (Simulation time: 0 hr 44 min 18 sec) 
Heartbeat CPU  0 instructions:  535000002 cycles: 2460258284 heartbeat IPC: 0.59525 cumulative IPC: 0.18499 (Simulation time: 0 hr 44 min 21 sec) 
Heartbeat CPU  0 instructions:  536000000 cycles: 2462056347 heartbeat IPC: 0.55615 cumulative IPC: 0.18528 (Simulation time: 0 hr 44 min 24 sec) 
Heartbeat CPU  0 instructions:  537000000 cycles: 2463850470 heartbeat IPC: 0.55738 cumulative IPC: 0.18556 (Simulation time: 0 hr 44 min 28 sec) 
Heartbeat CPU  0 instructions:  538000000 cycles: 2465628189 heartbeat IPC: 0.56252 cumulative IPC: 0.18584 (Simulation time: 0 hr 44 min 31 sec) 
Heartbeat CPU  0 instructions:  539000000 cycles: 2467441859 heartbeat IPC: 0.55137 cumulative IPC: 0.18612 (Simulation time: 0 hr 44 min 34 sec) 
Heartbeat CPU  0 instructions:  540000000 cycles: 2469115550 heartbeat IPC: 0.59748 cumulative IPC: 0.18642 (Simulation time: 0 hr 44 min 37 sec) 
Heartbeat CPU  0 instructions:  541000003 cycles: 2471147346 heartbeat IPC: 0.49218 cumulative IPC: 0.18668 (Simulation time: 0 hr 44 min 41 sec) 
Heartbeat CPU  0 instructions:  542000001 cycles: 2473121374 heartbeat IPC: 0.50658 cumulative IPC: 0.18695 (Simulation time: 0 hr 44 min 44 sec) 
Heartbeat CPU  0 instructions:  543000000 cycles: 2475052065 heartbeat IPC: 0.51795 cumulative IPC: 0.18722 (Simulation time: 0 hr 44 min 47 sec) 
Heartbeat CPU  0 instructions:  544000000 cycles: 2476864543 heartbeat IPC: 0.55173 cumulative IPC: 0.18750 (Simulation time: 0 hr 44 min 51 sec) 
Heartbeat CPU  0 instructions:  545000000 cycles: 2478805577 heartbeat IPC: 0.51519 cumulative IPC: 0.18776 (Simulation time: 0 hr 44 min 54 sec) 
Heartbeat CPU  0 instructions:  546000003 cycles: 2480810326 heartbeat IPC: 0.49882 cumulative IPC: 0.18803 (Simulation time: 0 hr 44 min 57 sec) 
Heartbeat CPU  0 instructions:  547000000 cycles: 2482616752 heartbeat IPC: 0.55358 cumulative IPC: 0.18830 (Simulation time: 0 hr 45 min 1 sec) 
Heartbeat CPU  0 instructions:  548000000 cycles: 2484462105 heartbeat IPC: 0.54190 cumulative IPC: 0.18858 (Simulation time: 0 hr 45 min 4 sec) 
Heartbeat CPU  0 instructions:  549000000 cycles: 2486334840 heartbeat IPC: 0.53398 cumulative IPC: 0.18885 (Simulation time: 0 hr 45 min 7 sec) 
Heartbeat CPU  0 instructions:  550000000 cycles: 2488351936 heartbeat IPC: 0.49576 cumulative IPC: 0.18911 (Simulation time: 0 hr 45 min 10 sec) 
Heartbeat CPU  0 instructions:  551000003 cycles: 2490215447 heartbeat IPC: 0.53662 cumulative IPC: 0.18938 (Simulation time: 0 hr 45 min 13 sec) 
Heartbeat CPU  0 instructions:  552000000 cycles: 2492049679 heartbeat IPC: 0.54519 cumulative IPC: 0.18966 (Simulation time: 0 hr 45 min 17 sec) 
Heartbeat CPU  0 instructions:  553000000 cycles: 2493932813 heartbeat IPC: 0.53103 cumulative IPC: 0.18993 (Simulation time: 0 hr 45 min 20 sec) 
Heartbeat CPU  0 instructions:  554000002 cycles: 2495877568 heartbeat IPC: 0.51420 cumulative IPC: 0.19019 (Simulation time: 0 hr 45 min 23 sec) 
Heartbeat CPU  0 instructions:  555000002 cycles: 2497852440 heartbeat IPC: 0.50636 cumulative IPC: 0.19045 (Simulation time: 0 hr 45 min 26 sec) 
Heartbeat CPU  0 instructions:  556000000 cycles: 2499640753 heartbeat IPC: 0.55919 cumulative IPC: 0.19073 (Simulation time: 0 hr 45 min 30 sec) 
Heartbeat CPU  0 instructions:  557000001 cycles: 2501569175 heartbeat IPC: 0.51856 cumulative IPC: 0.19099 (Simulation time: 0 hr 45 min 33 sec) 
Heartbeat CPU  0 instructions:  558000003 cycles: 2503448326 heartbeat IPC: 0.53216 cumulative IPC: 0.19126 (Simulation time: 0 hr 45 min 36 sec) 
Heartbeat CPU  0 instructions:  559000002 cycles: 2505179421 heartbeat IPC: 0.57767 cumulative IPC: 0.19154 (Simulation time: 0 hr 45 min 39 sec) 
Heartbeat CPU  0 instructions:  560000000 cycles: 2507071094 heartbeat IPC: 0.52863 cumulative IPC: 0.19181 (Simulation time: 0 hr 45 min 42 sec) 
Heartbeat CPU  0 instructions:  561000003 cycles: 2508998903 heartbeat IPC: 0.51873 cumulative IPC: 0.19207 (Simulation time: 0 hr 45 min 45 sec) 
Heartbeat CPU  0 instructions:  562000001 cycles: 2510879034 heartbeat IPC: 0.53188 cumulative IPC: 0.19233 (Simulation time: 0 hr 45 min 49 sec) 
Heartbeat CPU  0 instructions:  563000001 cycles: 2512786573 heartbeat IPC: 0.52424 cumulative IPC: 0.19260 (Simulation time: 0 hr 45 min 52 sec) 
Heartbeat CPU  0 instructions:  564000000 cycles: 2514701893 heartbeat IPC: 0.52211 cumulative IPC: 0.19286 (Simulation time: 0 hr 45 min 55 sec) 
Heartbeat CPU  0 instructions:  565000002 cycles: 2516587762 heartbeat IPC: 0.53026 cumulative IPC: 0.19312 (Simulation time: 0 hr 45 min 58 sec) 
Heartbeat CPU  0 instructions:  566000003 cycles: 2518589288 heartbeat IPC: 0.49962 cumulative IPC: 0.19338 (Simulation time: 0 hr 46 min 1 sec) 
Heartbeat CPU  0 instructions:  567000000 cycles: 2520464213 heartbeat IPC: 0.53335 cumulative IPC: 0.19364 (Simulation time: 0 hr 46 min 5 sec) 
Heartbeat CPU  0 instructions:  568000000 cycles: 2522352283 heartbeat IPC: 0.52964 cumulative IPC: 0.19391 (Simulation time: 0 hr 46 min 8 sec) 
Heartbeat CPU  0 instructions:  569000000 cycles: 2524273363 heartbeat IPC: 0.52054 cumulative IPC: 0.19417 (Simulation time: 0 hr 46 min 11 sec) 
Heartbeat CPU  0 instructions:  570000001 cycles: 2526266890 heartbeat IPC: 0.50162 cumulative IPC: 0.19442 (Simulation time: 0 hr 46 min 15 sec) 
Heartbeat CPU  0 instructions:  571000000 cycles: 2528108876 heartbeat IPC: 0.54289 cumulative IPC: 0.19468 (Simulation time: 0 hr 46 min 18 sec) 
Heartbeat CPU  0 instructions:  572000000 cycles: 2530053757 heartbeat IPC: 0.51417 cumulative IPC: 0.19494 (Simulation time: 0 hr 46 min 21 sec) 
Heartbeat CPU  0 instructions:  573000001 cycles: 2531894799 heartbeat IPC: 0.54317 cumulative IPC: 0.19521 (Simulation time: 0 hr 46 min 24 sec) 
Heartbeat CPU  0 instructions:  574000000 cycles: 2533792798 heartbeat IPC: 0.52687 cumulative IPC: 0.19546 (Simulation time: 0 hr 46 min 27 sec) 
Heartbeat CPU  0 instructions:  575000003 cycles: 2535689833 heartbeat IPC: 0.52714 cumulative IPC: 0.19572 (Simulation time: 0 hr 46 min 30 sec) 
Heartbeat CPU  0 instructions:  576000000 cycles: 2537594852 heartbeat IPC: 0.52493 cumulative IPC: 0.19598 (Simulation time: 0 hr 46 min 33 sec) 
Heartbeat CPU  0 instructions:  577000000 cycles: 2539362117 heartbeat IPC: 0.56585 cumulative IPC: 0.19625 (Simulation time: 0 hr 46 min 36 sec) 
Heartbeat CPU  0 instructions:  578000002 cycles: 2541226649 heartbeat IPC: 0.53633 cumulative IPC: 0.19651 (Simulation time: 0 hr 46 min 39 sec) 
Heartbeat CPU  0 instructions:  579000003 cycles: 2543132149 heartbeat IPC: 0.52480 cumulative IPC: 0.19677 (Simulation time: 0 hr 46 min 43 sec) 
Heartbeat CPU  0 instructions:  580000000 cycles: 2544951376 heartbeat IPC: 0.54968 cumulative IPC: 0.19703 (Simulation time: 0 hr 46 min 46 sec) 
Heartbeat CPU  0 instructions:  581000001 cycles: 2546685710 heartbeat IPC: 0.57659 cumulative IPC: 0.19730 (Simulation time: 0 hr 46 min 49 sec) 
Heartbeat CPU  0 instructions:  582000000 cycles: 2548535051 heartbeat IPC: 0.54073 cumulative IPC: 0.19756 (Simulation time: 0 hr 46 min 52 sec) 
Heartbeat CPU  0 instructions:  583000000 cycles: 2550445564 heartbeat IPC: 0.52342 cumulative IPC: 0.19782 (Simulation time: 0 hr 46 min 55 sec) 
Heartbeat CPU  0 instructions:  584000000 cycles: 2552395794 heartbeat IPC: 0.51276 cumulative IPC: 0.19807 (Simulation time: 0 hr 46 min 58 sec) 
Heartbeat CPU  0 instructions:  585000001 cycles: 2554262102 heartbeat IPC: 0.53582 cumulative IPC: 0.19833 (Simulation time: 0 hr 47 min 2 sec) 
Heartbeat CPU  0 instructions:  586000001 cycles: 2556096167 heartbeat IPC: 0.54524 cumulative IPC: 0.19859 (Simulation time: 0 hr 47 min 5 sec) 
Heartbeat CPU  0 instructions:  587000001 cycles: 2558119059 heartbeat IPC: 0.49434 cumulative IPC: 0.19883 (Simulation time: 0 hr 47 min 8 sec) 
Heartbeat CPU  0 instructions:  588000000 cycles: 2560112093 heartbeat IPC: 0.50175 cumulative IPC: 0.19908 (Simulation time: 0 hr 47 min 12 sec) 
Heartbeat CPU  0 instructions:  589000002 cycles: 2562199309 heartbeat IPC: 0.47911 cumulative IPC: 0.19932 (Simulation time: 0 hr 47 min 15 sec) 
Heartbeat CPU  0 instructions:  590000001 cycles: 2563977819 heartbeat IPC: 0.56227 cumulative IPC: 0.19958 (Simulation time: 0 hr 47 min 18 sec) 
Heartbeat CPU  0 instructions:  591000001 cycles: 2565845782 heartbeat IPC: 0.53534 cumulative IPC: 0.19983 (Simulation time: 0 hr 47 min 21 sec) 
Heartbeat CPU  0 instructions:  592000000 cycles: 2567736250 heartbeat IPC: 0.52897 cumulative IPC: 0.20009 (Simulation time: 0 hr 47 min 25 sec) 
Heartbeat CPU  0 instructions:  593000000 cycles: 2569612830 heartbeat IPC: 0.53288 cumulative IPC: 0.20034 (Simulation time: 0 hr 47 min 28 sec) 
Heartbeat CPU  0 instructions:  594000003 cycles: 2571487915 heartbeat IPC: 0.53331 cumulative IPC: 0.20059 (Simulation time: 0 hr 47 min 31 sec) 
Heartbeat CPU  0 instructions:  595000000 cycles: 2573315523 heartbeat IPC: 0.54716 cumulative IPC: 0.20085 (Simulation time: 0 hr 47 min 34 sec) 
Heartbeat CPU  0 instructions:  596000000 cycles: 2575103766 heartbeat IPC: 0.55921 cumulative IPC: 0.20111 (Simulation time: 0 hr 47 min 37 sec) 
Heartbeat CPU  0 instructions:  597000001 cycles: 2576989514 heartbeat IPC: 0.53029 cumulative IPC: 0.20136 (Simulation time: 0 hr 47 min 40 sec) 
Heartbeat CPU  0 instructions:  598000001 cycles: 2578817677 heartbeat IPC: 0.54700 cumulative IPC: 0.20162 (Simulation time: 0 hr 47 min 43 sec) 
Heartbeat CPU  0 instructions:  599000003 cycles: 2580582038 heartbeat IPC: 0.56678 cumulative IPC: 0.20188 (Simulation time: 0 hr 47 min 46 sec) 
Heartbeat CPU  0 instructions:  600000000 cycles: 2582440999 heartbeat IPC: 0.53793 cumulative IPC: 0.20213 (Simulation time: 0 hr 47 min 49 sec) 
Finished CPU 0 instructions: 500000000 cycles: 2473637855 cumulative IPC: 0.20213 (Simulation time: 0 hr 47 min 49 sec) 

ChampSim completed all CPUs

[ROI Statistics]
Core_0_instructions 500000000
Core_0_cycles 2473637855
Core_0_IPC 0.20213

Core_0_branch_prediction_accuracy 95.55097
Core_0_branch_MPKI 5.00272
Core_0_average_ROB_occupancy_at_mispredict 120.35254

Core_0_L1D_total_access 237304694
Core_0_L1D_total_hit 200368640
Core_0_L1D_total_miss 36936054
Core_0_L1D_loads 154792686
Core_0_L1D_load_hit 133861081
Core_0_L1D_load_miss 20931605
Core_0_L1D_RFOs 82512008
Core_0_L1D_RFO_hit 66507559
Core_0_L1D_RFO_miss 16004449
Core_0_L1D_prefetches 0
Core_0_L1D_prefetch_hit 0
Core_0_L1D_prefetch_miss 0
Core_0_L1D_writebacks 0
Core_0_L1D_writeback_hit 0
Core_0_L1D_writeback_miss 0
Core_0_L1D_prefetch_requested 0
Core_0_L1D_prefetch_issued 0
Core_0_L1D_prefetch_useful 0
Core_0_L1D_prefetch_useless 0
Core_0_L1D_prefetch_late 0
Core_0_L1D_average_miss_latency 245.29753

Core_0_L1I_total_access 123109973
Core_0_L1I_total_hit 123109747
Core_0_L1I_total_miss 226
Core_0_L1I_loads 123109973
Core_0_L1I_load_hit 123109747
Core_0_L1I_load_miss 226
Core_0_L1I_RFOs 0
Core_0_L1I_RFO_hit 0
Core_0_L1I_RFO_miss 0
Core_0_L1I_prefetches 0
Core_0_L1I_prefetch_hit 0
Core_0_L1I_prefetch_miss 0
Core_0_L1I_writebacks 0
Core_0_L1I_writeback_hit 0
Core_0_L1I_writeback_miss 0
Core_0_L1I_prefetch_requested 0
Core_0_L1I_prefetch_issued 0
Core_0_L1I_prefetch_useful 0
Core_0_L1I_prefetch_useless 0
Core_0_L1I_prefetch_late 0
Core_0_L1I_average_miss_latency 234.63717

Core_0_L2C_total_access 83832355
Core_0_L2C_total_hit 48744071
Core_0_L2C_total_miss 35088284
Core_0_L2C_loads 20931394
Core_0_L2C_load_hit 14663666
Core_0_L2C_load_miss 6267728
Core_0_L2C_RFOs 16004444
Core_0_L2C_RFO_hit 202350
Core_0_L2C_RFO_miss 15802094
Core_0_L2C_prefetches 14788616
Core_0_L2C_prefetch_hit 1777012
Core_0_L2C_prefetch_miss 13011604
Core_0_L2C_writebacks 32107901
Core_0_L2C_writeback_hit 32101043
Core_0_L2C_writeback_miss 6858
Core_0_L2C_prefetch_requested 20376725
Core_0_L2C_prefetch_issued 19142885
Core_0_L2C_prefetch_useful 13028129
Core_0_L2C_prefetch_useless 3218167
Core_0_L2C_prefetch_late 483976
Core_0_L2C_average_miss_latency 357.37444

Core_0_LLC_total_access 64712069
Core_0_LLC_total_hit 14070963
Core_0_LLC_total_miss 50641106
Core_0_LLC_loads 5802730
Core_0_LLC_load_hit 4572006
Core_0_LLC_load_miss 1230724
Core_0_LLC_RFOs 15802062
Core_0_LLC_RFO_hit 503694
Core_0_LLC_RFO_miss 15298368
Core_0_LLC_prefetches 13476432
Core_0_LLC_prefetch_hit 2845242
Core_0_LLC_prefetch_miss 10631190
Core_0_LLC_writebacks 29630845
Core_0_LLC_writeback_hit 6150021
Core_0_LLC_writeback_miss 23480824
Core_0_LLC_prefetch_requested 0
Core_0_LLC_prefetch_issued 0
Core_0_LLC_prefetch_useful 103775
Core_0_LLC_prefetch_useless 13208358
Core_0_LLC_prefetch_late 0
Core_0_LLC_average_miss_latency 220.43285

Core_0_major_page_fault 0
Core_0_minor_page_fault 401483

CPU 0 L2C berti prefetcher final stats
Channel_0_RQ_row_buffer_hit 1108414
Channel_0_RQ_row_buffer_miss 26050848
Channel_0_WQ_row_buffer_hit 2387711
Channel_0_WQ_row_buffer_miss 21994661
Channel_0_WQ_full 518
Channel_0_dbus_congested 30947246

avg_congested_cycle 11
